
 OpenBabel05302315473D

 48 48  0  0  0  0  0  0  0  0999 V2000
   -1.2406   -0.7132    0.0000 C   0  0  0  0  0  0  0  0  0  0  0  0
   -1.2406    0.7131    0.0000 C   0  0  0  0  0  0  0  0  0  0  0  0
    1.2407   -0.7131   -0.0000 C   0  0  0  0  0  0  0  0  0  0  0  0
    1.2406    0.7132    0.0000 C   0  0  0  0  0  0  0  0  0  0  0  0
   -2.5049   -1.5861    0.0000 C   0  0  0  0  0  0  0  0  0  0  0  0
   -2.5051    1.5858    0.0000 C   0  0  0  0  0  0  0  0  0  0  0  0
    2.5051   -1.5858   -0.0001 C   0  0  0  0  0  0  0  0  0  0  0  0
    2.5050    1.5861    0.0000 C   0  0  0  0  0  0  0  0  0  0  0  0
    0.0001   -1.3804   -0.0000 C   0  0  0  0  0  0  0  0  0  0  0  0
   -0.0001    1.3804    0.0000 C   0  0  0  0  0  0  0  0  0  0  0  0
   -2.5745   -2.4541    1.2654 C   0  0  0  0  0  0  0  0  0  0  0  0
   -2.5746   -2.4540   -1.2655 C   0  0  0  0  0  0  0  0  0  0  0  0
   -2.5748    2.4537   -1.2654 C   0  0  0  0  0  0  0  0  0  0  0  0
   -2.5748    2.4537    1.2655 C   0  0  0  0  0  0  0  0  0  0  0  0
    2.5748   -2.4537   -1.2655 C   0  0  0  0  0  0  0  0  0  0  0  0
    2.5749   -2.4537    1.2654 C   0  0  0  0  0  0  0  0  0  0  0  0
    2.5746    2.4540    1.2655 C   0  0  0  0  0  0  0  0  0  0  0  0
    2.5746    2.4541   -1.2654 C   0  0  0  0  0  0  0  0  0  0  0  0
   -3.4310   -0.9990    0.0001 H   0  0  0  0  0  0  0  0  0  0  0  0
   -3.4311    0.9986    0.0000 H   0  0  0  0  0  0  0  0  0  0  0  0
    3.4312   -0.9986   -0.0001 H   0  0  0  0  0  0  0  0  0  0  0  0
    3.4311    0.9990    0.0000 H   0  0  0  0  0  0  0  0  0  0  0  0
    0.0002   -2.4599   -0.0001 H   0  0  0  0  0  0  0  0  0  0  0  0
   -0.0001    2.4599    0.0001 H   0  0  0  0  0  0  0  0  0  0  0  0
   -1.7191   -3.1574    1.3344 H   0  0  0  0  0  0  0  0  0  0  0  0
   -3.5110   -3.0520    1.2674 H   0  0  0  0  0  0  0  0  0  0  0  0
   -2.5763   -1.8052    2.1673 H   0  0  0  0  0  0  0  0  0  0  0  0
   -2.5765   -1.8050   -2.1673 H   0  0  0  0  0  0  0  0  0  0  0  0
   -3.5111   -3.0519   -1.2675 H   0  0  0  0  0  0  0  0  0  0  0  0
   -1.7192   -3.1573   -1.3346 H   0  0  0  0  0  0  0  0  0  0  0  0
   -1.7195    3.1572   -1.3344 H   0  0  0  0  0  0  0  0  0  0  0  0
   -3.5114    3.0516   -1.2674 H   0  0  0  0  0  0  0  0  0  0  0  0
   -2.5766    1.8048   -2.1673 H   0  0  0  0  0  0  0  0  0  0  0  0
   -2.5766    1.8048    2.1673 H   0  0  0  0  0  0  0  0  0  0  0  0
   -3.5114    3.0516    1.2675 H   0  0  0  0  0  0  0  0  0  0  0  0
   -1.7195    3.1571    1.3345 H   0  0  0  0  0  0  0  0  0  0  0  0
    2.5766   -1.8048   -2.1674 H   0  0  0  0  0  0  0  0  0  0  0  0
    3.5114   -3.0516   -1.2675 H   0  0  0  0  0  0  0  0  0  0  0  0
    1.7195   -3.1572   -1.3345 H   0  0  0  0  0  0  0  0  0  0  0  0
    1.7196   -3.1571    1.3344 H   0  0  0  0  0  0  0  0  0  0  0  0
    3.5115   -3.0516    1.2673 H   0  0  0  0  0  0  0  0  0  0  0  0
    2.5767   -1.8048    2.1672 H   0  0  0  0  0  0  0  0  0  0  0  0
    2.5765    1.8050    2.1673 H   0  0  0  0  0  0  0  0  0  0  0  0
    3.5111    3.0519    1.2675 H   0  0  0  0  0  0  0  0  0  0  0  0
    1.7192    3.1573    1.3346 H   0  0  0  0  0  0  0  0  0  0  0  0
    1.7192    3.1574   -1.3344 H   0  0  0  0  0  0  0  0  0  0  0  0
    3.5111    3.0521   -1.2673 H   0  0  0  0  0  0  0  0  0  0  0  0
    2.5764    1.8052   -2.1672 H   0  0  0  0  0  0  0  0  0  0  0  0
  1  2  2  0  0  0  0
  1  5  1  0  0  0  0
  1  9  1  0  0  0  0
  2  6  1  0  0  0  0
  2 10  1  0  0  0  0
  3  4  1  0  0  0  0
  3  7  1  0  0  0  0
  3  9  2  0  0  0  0
  4  8  1  0  0  0  0
  4 10  2  0  0  0  0
  5 11  1  0  0  0  0
  5 12  1  0  0  0  0
  5 19  1  0  0  0  0
  6 13  1  0  0  0  0
  6 14  1  0  0  0  0
  6 20  1  0  0  0  0
  7 15  1  0  0  0  0
  7 16  1  0  0  0  0
  7 21  1  0  0  0  0
  8 17  1  0  0  0  0
  8 18  1  0  0  0  0
  8 22  1  0  0  0  0
  9 23  1  0  0  0  0
 10 24  1  0  0  0  0
 11 25  1  0  0  0  0
 11 26  1  0  0  0  0
 11 27  1  0  0  0  0
 12 28  1  0  0  0  0
 12 29  1  0  0  0  0
 12 30  1  0  0  0  0
 13 31  1  0  0  0  0
 13 32  1  0  0  0  0
 13 33  1  0  0  0  0
 14 34  1  0  0  0  0
 14 35  1  0  0  0  0
 14 36  1  0  0  0  0
 15 37  1  0  0  0  0
 15 38  1  0  0  0  0
 15 39  1  0  0  0  0
 16 40  1  0  0  0  0
 16 41  1  0  0  0  0
 16 42  1  0  0  0  0
 17 43  1  0  0  0  0
 17 44  1  0  0  0  0
 17 45  1  0  0  0  0
 18 46  1  0  0  0  0
 18 47  1  0  0  0  0
 18 48  1  0  0  0  0
M  END
