
 OpenBabel06022017343D

116115  0  0  1  0  0  0  0  0999 V2000
    3.9790   -1.1029   -1.0485 C   0  0  0  0  0  0  0  0  0  0  0  0
    5.2719   -1.9373   -0.9898 C   0  0  1  0  0  0  0  0  0  0  0  0
    6.0840   -1.8409   -2.2921 C   0  0  0  0  0  0  0  0  0  0  0  0
    6.0321   -1.6284    0.1336 O   0  0  0  0  0  0  0  0  0  0  0  0
    7.2018   -2.6478   -2.2135 O   0  0  0  0  0  0  0  0  0  0  0  0
    4.9543   -2.9971   -0.8774 H   0  0  0  0  0  0  0  0  0  0  0  0
    6.3937   -0.7921   -2.4813 H   0  0  0  0  0  0  0  0  0  0  0  0
    5.4529   -2.1691   -3.1476 H   0  0  0  0  0  0  0  0  0  0  0  0
    6.7149   -0.4831    0.4117 C   0  0  0  0  0  0  0  0  0  0  0  0
    8.1387   -2.7227   -3.1921 C   0  0  0  0  0  0  0  0  0  0  0  0
    6.8280    0.4106   -0.4137 O   0  0  0  0  0  0  0  0  0  0  0  0
    8.0440   -2.0260   -4.1952 O   0  0  0  0  0  0  0  0  0  0  0  0
    7.3420   -0.3172    1.7657 C   0  0  0  0  0  0  0  0  0  0  0  0
    8.8696   -0.1731    1.6986 C   0  0  0  0  0  0  0  0  0  0  0  0
    9.5454   -1.4474    1.1605 C   0  0  0  0  0  0  0  0  0  0  0  0
   11.0818   -1.3624    1.1148 C   0  0  0  0  0  0  0  0  0  0  0  0
   11.7136   -1.1685    2.5053 C   0  0  0  0  0  0  0  0  0  0  0  0
   13.2440   -1.3070    2.5131 C   0  0  0  0  0  0  0  0  0  0  0  0
   13.9597   -0.3059    1.5986 C   0  0  0  0  0  0  0  0  0  0  0  0
   15.4535   -0.4652    1.7449 C   0  0  0  0  0  0  0  0  0  0  0  0
   16.3210    0.5187    2.0454 C   0  0  0  0  0  0  0  0  0  0  0  0
   15.5134    2.6510    0.9179 C   0  0  0  0  0  0  0  0  0  0  0  0
   16.5971    2.5959   -0.1713 C   0  0  0  0  0  0  0  0  0  0  0  0
   16.1175    3.2842   -1.4584 C   0  0  0  0  0  0  0  0  0  0  0  0
   17.1247    3.1865   -2.6170 C   0  0  0  0  0  0  0  0  0  0  0  0
   18.4468    3.9254   -2.3406 C   0  0  0  0  0  0  0  0  0  0  0  0
   19.4512    3.8254   -3.5009 C   0  0  0  0  0  0  0  0  0  0  0  0
   11.3853   -0.5383    0.4350 H   0  0  0  0  0  0  0  0  0  0  0  0
   11.4552   -2.3156    0.6883 H   0  0  0  0  0  0  0  0  0  0  0  0
   11.3138   -1.9442    3.1945 H   0  0  0  0  0  0  0  0  0  0  0  0
   11.4442   -0.1691    2.9064 H   0  0  0  0  0  0  0  0  0  0  0  0
   13.5192   -2.3409    2.2093 H   0  0  0  0  0  0  0  0  0  0  0  0
   13.5873   -1.1513    3.5599 H   0  0  0  0  0  0  0  0  0  0  0  0
   13.6241    0.7155    1.8623 H   0  0  0  0  0  0  0  0  0  0  0  0
   13.6926   -0.5132    0.5419 H   0  0  0  0  0  0  0  0  0  0  0  0
   16.8354    1.5357   -0.4043 H   0  0  0  0  0  0  0  0  0  0  0  0
   17.5102    3.0941    0.2149 H   0  0  0  0  0  0  0  0  0  0  0  0
   15.8872    4.3528   -1.2541 H   0  0  0  0  0  0  0  0  0  0  0  0
   15.1805    2.7852   -1.7912 H   0  0  0  0  0  0  0  0  0  0  0  0
   16.6350    3.6367   -3.5049 H   0  0  0  0  0  0  0  0  0  0  0  0
   17.3311    2.1161   -2.8369 H   0  0  0  0  0  0  0  0  0  0  0  0
   18.9387    3.4747   -1.4543 H   0  0  0  0  0  0  0  0  0  0  0  0
   18.2416    4.9960   -2.1211 H   0  0  0  0  0  0  0  0  0  0  0  0
    9.3054   -3.6591   -3.0133 C   0  0  0  0  0  0  0  0  0  0  0  0
   10.3169   -3.5653   -4.1687 C   0  0  0  0  0  0  0  0  0  0  0  0
   11.5206   -4.4890   -3.9668 C   0  0  0  0  0  0  0  0  0  0  0  0
   11.8833   -6.7487   -1.7769 C   0  0  0  0  0  0  0  0  0  0  0  0
   10.8737   -7.2330   -0.7682 C   0  0  0  0  0  0  0  0  0  0  0  0
   10.5702   -5.0693    0.5649 C   0  0  0  0  0  0  0  0  0  0  0  0
   13.2391   -6.0142    1.8645 C   0  0  0  0  0  0  0  0  0  0  0  0
   14.4952   -5.2242    2.1428 C   0  0  0  0  0  0  0  0  0  0  0  0
   15.3171   -4.6447    1.2462 C   0  0  0  0  0  0  0  0  0  0  0  0
   15.1903   -4.6632   -0.2570 C   0  0  0  0  0  0  0  0  0  0  0  0
   15.0039   -3.2354   -0.7775 C   0  0  0  0  0  0  0  0  0  0  0  0
   14.9811   -3.1933   -2.3106 C   0  0  0  0  0  0  0  0  0  0  0  0
   14.3504   -5.2816   -0.6153 H   0  0  0  0  0  0  0  0  0  0  0  0
   16.1252   -5.0984   -0.6708 H   0  0  0  0  0  0  0  0  0  0  0  0
   15.8420   -2.6062   -0.4153 H   0  0  0  0  0  0  0  0  0  0  0  0
   14.0437   -2.8390   -0.3796 H   0  0  0  0  0  0  0  0  0  0  0  0
    9.1846   -1.6442    0.1275 H   0  0  0  0  0  0  0  0  0  0  0  0
    9.2524   -2.3099    1.7968 H   0  0  0  0  0  0  0  0  0  0  0  0
    7.0890   -1.1893    2.4076 H   0  0  0  0  0  0  0  0  0  0  0  0
    6.9103    0.5914    2.2380 H   0  0  0  0  0  0  0  0  0  0  0  0
    9.2173    0.0185    2.7345 H   0  0  0  0  0  0  0  0  0  0  0  0
    9.1433    0.7013    1.0686 H   0  0  0  0  0  0  0  0  0  0  0  0
   15.8609   -1.4614    1.6100 H   0  0  0  0  0  0  0  0  0  0  0  0
    8.9157   -4.6958   -2.9275 H   0  0  0  0  0  0  0  0  0  0  0  0
    9.8213   -3.3930   -2.0652 H   0  0  0  0  0  0  0  0  0  0  0  0
   10.6944   -2.5195   -4.2140 H   0  0  0  0  0  0  0  0  0  0  0  0
    9.8255   -3.8014   -5.1386 H   0  0  0  0  0  0  0  0  0  0  0  0
   14.7585   -5.1043    3.1909 H   0  0  0  0  0  0  0  0  0  0  0  0
   16.1692   -4.0997    1.6440 H   0  0  0  0  0  0  0  0  0  0  0  0
   18.9748    4.5065   -4.7842 C   0  0  0  0  0  0  0  0  0  0  0  0
   19.6795    2.7577   -3.7101 H   0  0  0  0  0  0  0  0  0  0  0  0
   20.3928    4.3235   -3.1826 H   0  0  0  0  0  0  0  0  0  0  0  0
   18.0690    4.0140   -5.1915 H   0  0  0  0  0  0  0  0  0  0  0  0
   19.7719    4.4369   -5.5540 H   0  0  0  0  0  0  0  0  0  0  0  0
   18.7590    5.5791   -4.5932 H   0  0  0  0  0  0  0  0  0  0  0  0
   14.6520   -1.7977   -2.8673 C   0  0  0  0  0  0  0  0  0  0  0  0
   14.2021   -3.8920   -2.6740 H   0  0  0  0  0  0  0  0  0  0  0  0
   15.9595   -3.5386   -2.7107 H   0  0  0  0  0  0  0  0  0  0  0  0
   15.6906   -0.7339   -2.5084 C   0  0  0  0  0  0  0  0  0  0  0  0
   13.6539   -1.4747   -2.4986 H   0  0  0  0  0  0  0  0  0  0  0  0
   14.6025   -1.8719   -3.9752 H   0  0  0  0  0  0  0  0  0  0  0  0
   15.7372   -0.5717   -1.4125 H   0  0  0  0  0  0  0  0  0  0  0  0
   15.4073    0.2303   -2.9804 H   0  0  0  0  0  0  0  0  0  0  0  0
   16.6931   -1.0315   -2.8819 H   0  0  0  0  0  0  0  0  0  0  0  0
   15.9702    1.9764    2.2270 C   0  0  0  0  0  0  0  0  0  0  0  0
   17.3671    0.2479    2.1582 H   0  0  0  0  0  0  0  0  0  0  0  0
   16.8782    2.5122    2.5799 H   0  0  0  0  0  0  0  0  0  0  0  0
   15.1942    2.0798    3.0151 H   0  0  0  0  0  0  0  0  0  0  0  0
   14.5903    2.1772    0.5300 H   0  0  0  0  0  0  0  0  0  0  0  0
   15.2793    3.7149    1.1405 H   0  0  0  0  0  0  0  0  0  0  0  0
   10.9479   -4.9243    2.0165 C   0  0  0  0  0  0  0  0  0  0  0  0
   12.0930   -5.3484    2.5817 C   0  0  0  0  0  0  0  0  0  0  0  0
   13.3729   -7.0325    2.2850 H   0  0  0  0  0  0  0  0  0  0  0  0
   13.0289   -6.1261    0.7915 H   0  0  0  0  0  0  0  0  0  0  0  0
   12.2088   -5.1875    3.6505 H   0  0  0  0  0  0  0  0  0  0  0  0
   10.2267   -4.4336    2.6639 H   0  0  0  0  0  0  0  0  0  0  0  0
   10.3154   -6.5182    0.2273 C   0  0  0  0  0  0  0  0  0  0  0  0
   11.3217   -4.5664   -0.0687 H   0  0  0  0  0  0  0  0  0  0  0  0
    9.6060   -4.5396    0.4132 H   0  0  0  0  0  0  0  0  0  0  0  0
   10.5561   -8.2680   -0.8668 H   0  0  0  0  0  0  0  0  0  0  0  0
    9.5843   -7.0302    0.8477 H   0  0  0  0  0  0  0  0  0  0  0  0
   11.1370   -5.9464   -4.0869 C   0  0  0  0  0  0  0  0  0  0  0  0
   11.9943   -4.2230   -3.0086 H   0  0  0  0  0  0  0  0  0  0  0  0
   12.2589   -4.2811   -4.7704 H   0  0  0  0  0  0  0  0  0  0  0  0
   11.2994   -6.9098   -3.1581 C   0  0  0  0  0  0  0  0  0  0  0  0
   12.7864   -7.3891   -1.6969 H   0  0  0  0  0  0  0  0  0  0  0  0
   12.2094   -5.7233   -1.5802 H   0  0  0  0  0  0  0  0  0  0  0  0
   10.6955   -6.2458   -5.0336 H   0  0  0  0  0  0  0  0  0  0  0  0
   10.9775   -7.9120   -3.4298 H   0  0  0  0  0  0  0  0  0  0  0  0
    4.2570    0.2582   -1.2243 O   0  0  0  0  0  0  0  0  0  0  0  0
    3.4178   -1.2527   -0.0989 H   0  0  0  0  0  0  0  0  0  0  0  0
    3.3589   -1.4643   -1.8995 H   0  0  0  0  0  0  0  0  0  0  0  0
    3.3787    0.7199   -1.2363 H   0  0  0  0  0  0  0  0  0  0  0  0
  1  2  1  0  0  0  0
  1113  1  0  0  0  0
  1114  1  0  0  0  0
  1115  1  0  0  0  0
  2  3  1  0  0  0  0
  2  6  1  1  0  0  0
  3  5  1  0  0  0  0
  3  7  1  0  0  0  0
  3  8  1  0  0  0  0
  4  2  1  0  0  0  0
  4  9  1  0  0  0  0
  9 13  1  0  0  0  0
 10  5  1  0  0  0  0
 11  9  2  0  0  0  0
 12 10  2  0  0  0  0
 13 14  1  0  0  0  0
 13 62  1  0  0  0  0
 13 63  1  0  0  0  0
 14 15  1  0  0  0  0
 14 64  1  0  0  0  0
 14 65  1  0  0  0  0
 15 60  1  0  0  0  0
 15 61  1  0  0  0  0
 16 15  1  0  0  0  0
 16 28  1  0  0  0  0
 16 29  1  0  0  0  0
 17 16  1  0  0  0  0
 17 30  1  0  0  0  0
 17 31  1  0  0  0  0
 18 17  1  0  0  0  0
 18 32  1  0  0  0  0
 18 33  1  0  0  0  0
 19 18  1  0  0  0  0
 19 34  1  0  0  0  0
 19 35  1  0  0  0  0
 20 19  1  0  0  0  0
 20 66  1  0  0  0  0
 21 20  2  0  0  0  0
 21 88  1  0  0  0  0
 21 89  1  0  0  0  0
 22 92  1  0  0  0  0
 22 93  1  0  0  0  0
 23 22  1  0  0  0  0
 23 36  1  0  0  0  0
 23 37  1  0  0  0  0
 24 23  1  0  0  0  0
 24 38  1  0  0  0  0
 24 39  1  0  0  0  0
 25 24  1  0  0  0  0
 25 40  1  0  0  0  0
 25 41  1  0  0  0  0
 26 25  1  0  0  0  0
 26 42  1  0  0  0  0
 26 43  1  0  0  0  0
 27 26  1  0  0  0  0
 27 73  1  0  0  0  0
 27 74  1  0  0  0  0
 27 75  1  0  0  0  0
 44 10  1  0  0  0  0
 44 45  1  0  0  0  0
 44 67  1  0  0  0  0
 44 68  1  0  0  0  0
 45 46  1  0  0  0  0
 45 69  1  0  0  0  0
 45 70  1  0  0  0  0
 46105  1  0  0  0  0
 46106  1  0  0  0  0
 46107  1  0  0  0  0
 47 48  1  0  0  0  0
 47108  1  0  0  0  0
 47109  1  0  0  0  0
 47110  1  0  0  0  0
 48100  2  0  0  0  0
 48103  1  0  0  0  0
 49 94  1  0  0  0  0
 49100  1  0  0  0  0
 49101  1  0  0  0  0
 49102  1  0  0  0  0
 50 51  1  0  0  0  0
 50 95  1  0  0  0  0
 50 96  1  0  0  0  0
 50 97  1  0  0  0  0
 51 52  2  0  0  0  0
 51 71  1  0  0  0  0
 52 53  1  0  0  0  0
 52 72  1  0  0  0  0
 53 54  1  0  0  0  0
 53 56  1  0  0  0  0
 53 57  1  0  0  0  0
 54 55  1  0  0  0  0
 54 58  1  0  0  0  0
 54 59  1  0  0  0  0
 55 79  1  0  0  0  0
 55 80  1  0  0  0  0
 55 81  1  0  0  0  0
 73 76  1  0  0  0  0
 73 77  1  0  0  0  0
 73 78  1  0  0  0  0
 79 82  1  0  0  0  0
 79 83  1  0  0  0  0
 79 84  1  0  0  0  0
 82 85  1  0  0  0  0
 82 86  1  0  0  0  0
 82 87  1  0  0  0  0
 88 22  1  0  0  0  0
 88 90  1  0  0  0  0
 88 91  1  0  0  0  0
 94 99  1  0  0  0  0
 95 94  2  0  0  0  0
 95 98  1  0  0  0  0
100104  1  0  0  0  0
105108  2  0  0  0  0
105111  1  0  0  0  0
108112  1  0  0  0  0
113116  1  0  0  0  0
M  END
