
 OpenBabel06252018063D

166165  0  0  1  0  0  0  0  0999 V2000
    2.1931    0.2839   -0.6382 C   0  0  0  0  0  0  0  0  0  0  0  0
    2.8115   -1.0470   -0.1630 C   0  0  1  0  0  0  0  0  0  0  0  0
    3.3108   -1.9043   -1.3396 C   0  0  0  0  0  0  0  0  0  0  0  0
    3.1165    1.0422   -1.3341 O   0  0  0  0  0  0  0  0  0  0  0  0
    3.7917   -0.8603    0.8040 O   0  0  0  0  0  0  0  0  0  0  0  0
    3.9279   -3.0464   -0.8686 O   0  0  0  0  0  0  0  0  0  0  0  0
    1.7817    0.8317    0.2381 H   0  0  0  0  0  0  0  0  0  0  0  0
    1.3471    0.0567   -1.3217 H   0  0  0  0  0  0  0  0  0  0  0  0
    1.9961   -1.6160    0.3347 H   0  0  0  0  0  0  0  0  0  0  0  0
    4.0417   -1.3362   -1.9536 H   0  0  0  0  0  0  0  0  0  0  0  0
    2.4470   -2.1700   -1.9888 H   0  0  0  0  0  0  0  0  0  0  0  0
    3.4601    2.3311   -1.0734 C   0  0  0  0  0  0  0  0  0  0  0  0
    5.0441   -0.3471    0.6751 C   0  0  0  0  0  0  0  0  0  0  0  0
    4.4317   -4.0121   -1.6786 C   0  0  0  0  0  0  0  0  0  0  0  0
    2.8550    2.9935   -0.2421 O   0  0  0  0  0  0  0  0  0  0  0  0
    5.4770   -0.0024   -0.4134 O   0  0  0  0  0  0  0  0  0  0  0  0
    4.1741   -4.0212   -2.8748 O   0  0  0  0  0  0  0  0  0  0  0  0
    4.6139    2.9325   -1.8234 C   0  0  0  0  0  0  0  0  0  0  0  0
    5.7254    3.3565   -0.8574 C   0  0  0  0  0  0  0  0  0  0  0  0
    6.9930    3.7703   -1.6121 C   0  0  0  0  0  0  0  0  0  0  0  0
    8.1179    4.1252   -0.6325 C   0  0  0  0  0  0  0  0  0  0  0  0
    9.4320    4.3895   -1.3746 C   0  0  0  0  0  0  0  0  0  0  0  0
   10.5628    4.7052   -0.3889 C   0  0  0  0  0  0  0  0  0  0  0  0
   11.9035    4.8408   -1.1158 C   0  0  0  0  0  0  0  0  0  0  0  0
   15.2398    7.2156   -1.9564 C   0  0  0  0  0  0  0  0  0  0  0  0
   16.6062    7.5920   -1.3440 C   0  0  0  0  0  0  0  0  0  0  0  0
   17.1724    6.6183   -0.3032 C   0  0  0  0  0  0  0  0  0  0  0  0
   18.6203    6.9772    0.0542 C   0  0  0  0  0  0  0  0  0  0  0  0
   19.1794    6.0196    1.1148 C   0  0  0  0  0  0  0  0  0  0  0  0
    5.0091    2.1608   -2.5203 H   0  0  0  0  0  0  0  0  0  0  0  0
    4.2733    3.8054   -2.4207 H   0  0  0  0  0  0  0  0  0  0  0  0
    5.9806    2.4945   -0.2100 H   0  0  0  0  0  0  0  0  0  0  0  0
    5.3682    4.1876   -0.2104 H   0  0  0  0  0  0  0  0  0  0  0  0
    6.7820    4.6369   -2.2762 H   0  0  0  0  0  0  0  0  0  0  0  0
    7.3217    2.9108   -2.2380 H   0  0  0  0  0  0  0  0  0  0  0  0
    8.2783    3.2694    0.0600 H   0  0  0  0  0  0  0  0  0  0  0  0
    7.8258    5.0171   -0.0358 H   0  0  0  0  0  0  0  0  0  0  0  0
    9.7000    3.4753   -1.9499 H   0  0  0  0  0  0  0  0  0  0  0  0
    9.3073    5.2361   -2.0850 H   0  0  0  0  0  0  0  0  0  0  0  0
   10.6413    3.8742    0.3466 H   0  0  0  0  0  0  0  0  0  0  0  0
   10.3294    5.6451    0.1584 H   0  0  0  0  0  0  0  0  0  0  0  0
   15.3054    6.2305   -2.4688 H   0  0  0  0  0  0  0  0  0  0  0  0
   13.9903    7.2421   -1.0529 C   0  0  0  0  0  0  0  0  0  0  0  0
   16.5589    8.6158   -0.9127 H   0  0  0  0  0  0  0  0  0  0  0  0
   17.3197    7.6151   -2.1977 H   0  0  0  0  0  0  0  0  0  0  0  0
   17.1479    5.5849   -0.7121 H   0  0  0  0  0  0  0  0  0  0  0  0
   16.5833    6.6758    0.6266 H   0  0  0  0  0  0  0  0  0  0  0  0
   18.6579    8.0180    0.4454 H   0  0  0  0  0  0  0  0  0  0  0  0
   19.2476    6.9182   -0.8624 H   0  0  0  0  0  0  0  0  0  0  0  0
    5.8862   -0.2471    1.9214 C   0  0  0  0  0  0  0  0  0  0  0  0
    7.3129    0.3018    1.7409 C   0  0  0  0  0  0  0  0  0  0  0  0
    8.2079   -0.6134    0.8853 C   0  0  0  0  0  0  0  0  0  0  0  0
    9.6597   -0.1151    0.7727 C   0  0  0  0  0  0  0  0  0  0  0  0
   10.3939   -0.1225    2.1274 C   0  0  0  0  0  0  0  0  0  0  0  0
   11.9090    0.1035    2.0125 C   0  0  0  0  0  0  0  0  0  0  0  0
   12.2903    1.4632    1.4192 C   0  0  0  0  0  0  0  0  0  0  0  0
   14.2929    1.7985   -1.0130 C   0  0  0  0  0  0  0  0  0  0  0  0
   16.4882    1.9943   -3.2730 C   0  0  0  0  0  0  0  0  0  0  0  0
   17.9965    2.1276   -3.0280 C   0  0  0  0  0  0  0  0  0  0  0  0
   18.3234    2.3145   -1.5346 C   0  0  0  0  0  0  0  0  0  0  0  0
   19.8291    2.4208   -1.2467 C   0  0  0  0  0  0  0  0  0  0  0  0
    9.6775    0.8993    0.3202 H   0  0  0  0  0  0  0  0  0  0  0  0
   10.1862   -0.8032    0.0808 H   0  0  0  0  0  0  0  0  0  0  0  0
   10.2565   -1.1192    2.6005 H   0  0  0  0  0  0  0  0  0  0  0  0
    9.9629    0.6448    2.8038 H   0  0  0  0  0  0  0  0  0  0  0  0
   12.3581   -0.7051    1.3940 H   0  0  0  0  0  0  0  0  0  0  0  0
   12.3318    0.0276    3.0390 H   0  0  0  0  0  0  0  0  0  0  0  0
   18.3496    3.0117   -3.5983 H   0  0  0  0  0  0  0  0  0  0  0  0
   18.5137    1.2261   -3.4205 H   0  0  0  0  0  0  0  0  0  0  0  0
   17.9416    1.4376   -0.9685 H   0  0  0  0  0  0  0  0  0  0  0  0
   17.8105    3.2225   -1.1498 H   0  0  0  0  0  0  0  0  0  0  0  0
    5.3393   -5.0642   -1.1085 C   0  0  0  0  0  0  0  0  0  0  0  0
    6.6126   -4.4166   -0.5490 C   0  0  0  0  0  0  0  0  0  0  0  0
    7.6005   -5.4791   -0.0382 C   0  0  0  0  0  0  0  0  0  0  0  0
    8.8930   -4.8886    0.5574 C   0  0  0  0  0  0  0  0  0  0  0  0
    9.7157   -4.0825   -0.4641 C   0  0  0  0  0  0  0  0  0  0  0  0
   11.0154   -3.5049    0.1149 C   0  0  0  0  0  0  0  0  0  0  0  0
   12.0690   -4.5575    0.4730 C   0  0  0  0  0  0  0  0  0  0  0  0
   14.9565   -4.6032   -0.8248 C   0  0  0  0  0  0  0  0  0  0  0  0
   17.8194   -4.3224   -2.1605 C   0  0  0  0  0  0  0  0  0  0  0  0
   19.0012   -3.4796   -1.6554 C   0  0  0  0  0  0  0  0  0  0  0  0
   19.5295   -2.4860   -2.7036 C   0  0  0  0  0  0  0  0  0  0  0  0
   20.7532   -1.7296   -2.1735 C   0  0  0  0  0  0  0  0  0  0  0  0
   18.7438   -1.7478   -2.9697 H   0  0  0  0  0  0  0  0  0  0  0  0
   19.8191   -3.0499   -3.6177 H   0  0  0  0  0  0  0  0  0  0  0  0
    7.7993   -0.6811   -0.1429 H   0  0  0  0  0  0  0  0  0  0  0  0
    8.2128   -1.6388    1.3157 H   0  0  0  0  0  0  0  0  0  0  0  0
    5.9531   -1.2564    2.3826 H   0  0  0  0  0  0  0  0  0  0  0  0
    5.3475    0.4187    2.6293 H   0  0  0  0  0  0  0  0  0  0  0  0
    7.7439    0.3764    2.7601 H   0  0  0  0  0  0  0  0  0  0  0  0
    7.2810    1.3217    1.3072 H   0  0  0  0  0  0  0  0  0  0  0  0
   10.7789   -2.8920    1.0094 H   0  0  0  0  0  0  0  0  0  0  0  0
   11.4563   -2.8414   -0.6626 H   0  0  0  0  0  0  0  0  0  0  0  0
    7.1001   -6.0754    0.7560 H   0  0  0  0  0  0  0  0  0  0  0  0
    7.8679   -6.1666   -0.8707 H   0  0  0  0  0  0  0  0  0  0  0  0
    5.6224   -5.7775   -1.9145 H   0  0  0  0  0  0  0  0  0  0  0  0
    4.8050   -5.6248   -0.3117 H   0  0  0  0  0  0  0  0  0  0  0  0
    6.3481   -3.7227    0.2795 H   0  0  0  0  0  0  0  0  0  0  0  0
    7.0826   -3.8353   -1.3694 H   0  0  0  0  0  0  0  0  0  0  0  0
   20.6386    6.3659    1.4471 C   0  0  0  0  0  0  0  0  0  0  0  0
   19.1157    4.9813    0.7284 H   0  0  0  0  0  0  0  0  0  0  0  0
   18.5635    6.0968    2.0376 H   0  0  0  0  0  0  0  0  0  0  0  0
   20.4908    3.6414   -1.8861 C   0  0  0  0  0  0  0  0  0  0  0  0
   20.3449    1.5002   -1.5901 H   0  0  0  0  0  0  0  0  0  0  0  0
   19.9608    2.4955   -0.1470 H   0  0  0  0  0  0  0  0  0  0  0  0
   20.4510    3.5866   -2.9927 H   0  0  0  0  0  0  0  0  0  0  0  0
   21.5592    3.6791   -1.5861 H   0  0  0  0  0  0  0  0  0  0  0  0
   19.9944    4.5734   -1.5466 H   0  0  0  0  0  0  0  0  0  0  0  0
   21.2354    5.4893    2.5598 C   0  0  0  0  0  0  0  0  0  0  0  0
   20.6804    7.4216    1.7943 H   0  0  0  0  0  0  0  0  0  0  0  0
   21.2638    6.2767    0.5314 H   0  0  0  0  0  0  0  0  0  0  0  0
   21.3262    4.0099    2.1874 C   0  0  0  0  0  0  0  0  0  0  0  0
   20.6354    5.6001    3.4891 H   0  0  0  0  0  0  0  0  0  0  0  0
   22.2649    5.8536    2.7678 H   0  0  0  0  0  0  0  0  0  0  0  0
   20.3184    3.5741    2.0355 H   0  0  0  0  0  0  0  0  0  0  0  0
   21.8142    3.4519    3.0141 H   0  0  0  0  0  0  0  0  0  0  0  0
   21.9313    3.8801    1.2650 H   0  0  0  0  0  0  0  0  0  0  0  0
    9.5007   -5.7403    0.9274 H   0  0  0  0  0  0  0  0  0  0  0  0
    8.6374   -4.2399    1.4236 H   0  0  0  0  0  0  0  0  0  0  0  0
    9.9527   -4.7100   -1.3509 H   0  0  0  0  0  0  0  0  0  0  0  0
    9.1131   -3.2143   -0.8007 H   0  0  0  0  0  0  0  0  0  0  0  0
   19.8268   -4.1808   -1.4018 H   0  0  0  0  0  0  0  0  0  0  0  0
   18.7052   -2.9420   -0.7276 H   0  0  0  0  0  0  0  0  0  0  0  0
   21.3188   -0.7850   -3.2306 C   0  0  0  0  0  0  0  0  0  0  0  0
   21.5475   -2.4535   -1.8882 H   0  0  0  0  0  0  0  0  0  0  0  0
   20.4663   -1.1418   -1.2742 H   0  0  0  0  0  0  0  0  0  0  0  0
   21.6408   -1.3578   -4.1262 H   0  0  0  0  0  0  0  0  0  0  0  0
   22.1981   -0.2473   -2.8175 H   0  0  0  0  0  0  0  0  0  0  0  0
   20.5565   -0.0393   -3.5352 H   0  0  0  0  0  0  0  0  0  0  0  0
   13.9034    6.0794   -0.0865 C   0  0  0  0  0  0  0  0  0  0  0  0
   13.1301    7.2288   -1.7420 H   0  0  0  0  0  0  0  0  0  0  0  0
   13.9264    8.2035   -0.5008 H   0  0  0  0  0  0  0  0  0  0  0  0
   13.0123    5.0681   -0.1154 C   0  0  0  0  0  0  0  0  0  0  0  0
   11.8223    5.6283   -1.8844 H   0  0  0  0  0  0  0  0  0  0  0  0
   12.1191    3.8876   -1.6430 H   0  0  0  0  0  0  0  0  0  0  0  0
   14.6154    6.0335    0.7193 H   0  0  0  0  0  0  0  0  0  0  0  0
   13.1094    4.3143    0.6596 H   0  0  0  0  0  0  0  0  0  0  0  0
   15.9431    0.7318   -2.6439 C   0  0  0  0  0  0  0  0  0  0  0  0
   16.3065    1.9272   -4.3668 H   0  0  0  0  0  0  0  0  0  0  0  0
   15.9997    2.9209   -2.9240 H   0  0  0  0  0  0  0  0  0  0  0  0
   15.0037    0.6493   -1.6815 C   0  0  0  0  0  0  0  0  0  0  0  0
   16.3630   -0.2024   -3.0057 H   0  0  0  0  0  0  0  0  0  0  0  0
   14.7325   -0.3463   -1.3391 H   0  0  0  0  0  0  0  0  0  0  0  0
   14.6401    1.7855    0.4530 C   0  0  0  0  0  0  0  0  0  0  0  0
   13.2160    1.6799   -1.2181 H   0  0  0  0  0  0  0  0  0  0  0  0
   14.5824    2.7876   -1.4042 H   0  0  0  0  0  0  0  0  0  0  0  0
   13.7898    1.6362    1.4873 C   0  0  0  0  0  0  0  0  0  0  0  0
   11.8261    2.2778    2.0150 H   0  0  0  0  0  0  0  0  0  0  0  0
   11.8940    1.5328    0.3932 H   0  0  0  0  0  0  0  0  0  0  0  0
   15.6936    1.9035    0.6941 H   0  0  0  0  0  0  0  0  0  0  0  0
   14.2248    1.6379    2.4833 H   0  0  0  0  0  0  0  0  0  0  0  0
   16.5941   -3.4803   -2.4451 C   0  0  0  0  0  0  0  0  0  0  0  0
   17.6275   -5.0971   -1.3997 H   0  0  0  0  0  0  0  0  0  0  0  0
   18.1159   -4.8512   -3.0916 H   0  0  0  0  0  0  0  0  0  0  0  0
   15.3793   -3.6000   -1.8707 C   0  0  0  0  0  0  0  0  0  0  0  0
   16.6973   -2.7045   -3.1962 H   0  0  0  0  0  0  0  0  0  0  0  0
   14.6094   -2.9065   -2.2001 H   0  0  0  0  0  0  0  0  0  0  0  0
   14.5364   -3.8697    0.4241 C   0  0  0  0  0  0  0  0  0  0  0  0
   15.7491   -5.3123   -0.5345 H   0  0  0  0  0  0  0  0  0  0  0  0
   14.1521   -5.2093   -1.2728 H   0  0  0  0  0  0  0  0  0  0  0  0
   13.3077   -3.8534    0.9801 C   0  0  0  0  0  0  0  0  0  0  0  0
   12.2534   -5.1771   -0.4210 H   0  0  0  0  0  0  0  0  0  0  0  0
   11.7005   -5.2277    1.2763 H   0  0  0  0  0  0  0  0  0  0  0  0
   15.3105   -3.2895    0.9197 H   0  0  0  0  0  0  0  0  0  0  0  0
   13.1841   -3.2587    1.8815 H   0  0  0  0  0  0  0  0  0  0  0  0
   15.0617    7.9816   -2.7437 H   0  0  0  0  0  0  0  0  0  0  0  0
  1  2  1  0  0  0  0
  1  7  1  0  0  0  0
  1  8  1  0  0  0  0
  2  3  1  0  0  0  0
  2  9  1  1  0  0  0
  3  6  1  0  0  0  0
  3 10  1  0  0  0  0
  3 11  1  0  0  0  0
  4  1  1  0  0  0  0
  4 12  1  0  0  0  0
  5  2  1  0  0  0  0
  5 13  1  0  0  0  0
 12 18  1  0  0  0  0
 13 50  1  0  0  0  0
 14  6  1  0  0  0  0
 15 12  2  0  0  0  0
 16 13  2  0  0  0  0
 17 14  2  0  0  0  0
 18 19  1  0  0  0  0
 18 30  1  0  0  0  0
 18 31  1  0  0  0  0
 19 20  1  0  0  0  0
 19 32  1  0  0  0  0
 19 33  1  0  0  0  0
 20 34  1  0  0  0  0
 20 35  1  0  0  0  0
 21 20  1  0  0  0  0
 21 36  1  0  0  0  0
 21 37  1  0  0  0  0
 22 21  1  0  0  0  0
 22 38  1  0  0  0  0
 22 39  1  0  0  0  0
 23 22  1  0  0  0  0
 23 40  1  0  0  0  0
 23 41  1  0  0  0  0
 24 23  1  0  0  0  0
 24133  1  0  0  0  0
 24134  1  0  0  0  0
 24135  1  0  0  0  0
 25 26  1  0  0  0  0
 25 42  1  0  0  0  0
 25 43  1  0  0  0  0
 25166  1  0  0  0  0
 26 27  1  0  0  0  0
 26 44  1  0  0  0  0
 26 45  1  0  0  0  0
 27 28  1  0  0  0  0
 27 46  1  0  0  0  0
 27 47  1  0  0  0  0
 28 29  1  0  0  0  0
 28 48  1  0  0  0  0
 28 49  1  0  0  0  0
 29100  1  0  0  0  0
 29101  1  0  0  0  0
 29102  1  0  0  0  0
 43130  1  0  0  0  0
 43131  1  0  0  0  0
 43132  1  0  0  0  0
 50 51  1  0  0  0  0
 50 88  1  0  0  0  0
 50 89  1  0  0  0  0
 51 52  1  0  0  0  0
 51 90  1  0  0  0  0
 51 91  1  0  0  0  0
 52 86  1  0  0  0  0
 52 87  1  0  0  0  0
 53 52  1  0  0  0  0
 53 62  1  0  0  0  0
 53 63  1  0  0  0  0
 54 53  1  0  0  0  0
 54 64  1  0  0  0  0
 54 65  1  0  0  0  0
 55 54  1  0  0  0  0
 55 66  1  0  0  0  0
 55 67  1  0  0  0  0
 56 55  1  0  0  0  0
 56147  1  0  0  0  0
 56148  1  0  0  0  0
 56149  1  0  0  0  0
 57141  1  0  0  0  0
 57144  1  0  0  0  0
 57145  1  0  0  0  0
 57146  1  0  0  0  0
 58138  1  0  0  0  0
 58139  1  0  0  0  0
 58140  1  0  0  0  0
 59 58  1  0  0  0  0
 59 68  1  0  0  0  0
 59 69  1  0  0  0  0
 60 59  1  0  0  0  0
 60 70  1  0  0  0  0
 60 71  1  0  0  0  0
 61 60  1  0  0  0  0
 61103  1  0  0  0  0
 61104  1  0  0  0  0
 61105  1  0  0  0  0
 72 14  1  0  0  0  0
 72 73  1  0  0  0  0
 72 96  1  0  0  0  0
 72 97  1  0  0  0  0
 73 74  1  0  0  0  0
 73 98  1  0  0  0  0
 73 99  1  0  0  0  0
 74 75  1  0  0  0  0
 74 94  1  0  0  0  0
 74 95  1  0  0  0  0
 75 76  1  0  0  0  0
 75118  1  0  0  0  0
 75119  1  0  0  0  0
 76 77  1  0  0  0  0
 76120  1  0  0  0  0
 76121  1  0  0  0  0
 77 78  1  0  0  0  0
 77 92  1  0  0  0  0
 77 93  1  0  0  0  0
 78161  1  0  0  0  0
 78162  1  0  0  0  0
 78163  1  0  0  0  0
 79155  1  0  0  0  0
 79158  1  0  0  0  0
 79159  1  0  0  0  0
 79160  1  0  0  0  0
 80 81  1  0  0  0  0
 80152  1  0  0  0  0
 80153  1  0  0  0  0
 80154  1  0  0  0  0
 81 82  1  0  0  0  0
 81122  1  0  0  0  0
 81123  1  0  0  0  0
 82 83  1  0  0  0  0
 82 84  1  0  0  0  0
 82 85  1  0  0  0  0
 83124  1  0  0  0  0
 83125  1  0  0  0  0
 83126  1  0  0  0  0
100109  1  0  0  0  0
100110  1  0  0  0  0
100111  1  0  0  0  0
103106  1  0  0  0  0
103107  1  0  0  0  0
103108  1  0  0  0  0
109112  1  0  0  0  0
109113  1  0  0  0  0
109114  1  0  0  0  0
112115  1  0  0  0  0
112116  1  0  0  0  0
112117  1  0  0  0  0
124127  1  0  0  0  0
124128  1  0  0  0  0
124129  1  0  0  0  0
130133  2  0  0  0  0
130136  1  0  0  0  0
133137  1  0  0  0  0
138141  2  0  0  0  0
138142  1  0  0  0  0
141143  1  0  0  0  0
144147  2  0  0  0  0
144150  1  0  0  0  0
147151  1  0  0  0  0
152155  2  0  0  0  0
152156  1  0  0  0  0
155157  1  0  0  0  0
158161  2  0  0  0  0
158164  1  0  0  0  0
161165  1  0  0  0  0
M  END
