
 OpenBabel06022017043D

106105  0  0  1  0  0  0  0  0999 V2000
    2.1297    1.3254    0.8226 C   0  0  0  0  0  0  0  0  0  0  0  0
    1.9195   -0.2008    0.9088 C   0  0  1  0  0  0  0  0  0  0  0  0
    1.6724   -0.8422   -0.4700 C   0  0  0  0  0  0  0  0  0  0  0  0
    3.2473    1.6426    0.0686 O   0  0  0  0  0  0  0  0  0  0  0  0
    2.9543   -0.8132    1.6092 O   0  0  0  0  0  0  0  0  0  0  0  0
    2.2031    1.7263    1.8575 H   0  0  0  0  0  0  0  0  0  0  0  0
    1.2416    1.7958    0.3492 H   0  0  0  0  0  0  0  0  0  0  0  0
    0.9944   -0.3549    1.5064 H   0  0  0  0  0  0  0  0  0  0  0  0
    4.3512    2.2965    0.5212 C   0  0  0  0  0  0  0  0  0  0  0  0
    4.2575   -0.9409    1.2378 C   0  0  0  0  0  0  0  0  0  0  0  0
    4.4274    2.6680    1.6852 O   0  0  0  0  0  0  0  0  0  0  0  0
    4.6121   -0.6908    0.0957 O   0  0  0  0  0  0  0  0  0  0  0  0
    5.4952    2.5200   -0.4346 C   0  0  0  0  0  0  0  0  0  0  0  0
    6.7053    3.2056    0.2178 C   0  0  0  0  0  0  0  0  0  0  0  0
    7.8375    3.4035   -0.7977 C   0  0  0  0  0  0  0  0  0  0  0  0
    9.0499    4.0823   -0.1488 C   0  0  0  0  0  0  0  0  0  0  0  0
   10.1651    4.3133   -1.1759 C   0  0  0  0  0  0  0  0  0  0  0  0
   11.3713    5.0090   -0.5340 C   0  0  0  0  0  0  0  0  0  0  0  0
   12.4668    5.2791   -1.5725 C   0  0  0  0  0  0  0  0  0  0  0  0
   13.6708    5.9802   -0.9331 C   0  0  0  0  0  0  0  0  0  0  0  0
   14.7616    6.2610   -1.9744 C   0  0  0  0  0  0  0  0  0  0  0  0
   15.9883    6.9124   -1.3243 C   0  0  0  0  0  0  0  0  0  0  0  0
   17.0966    7.1505   -2.3560 C   0  0  0  0  0  0  0  0  0  0  0  0
   18.3295    7.7820   -1.7001 C   0  0  0  0  0  0  0  0  0  0  0  0
    5.8169    1.5329   -0.8302 H   0  0  0  0  0  0  0  0  0  0  0  0
    5.1271    3.1384   -1.2814 H   0  0  0  0  0  0  0  0  0  0  0  0
    7.0735    2.5752    1.0577 H   0  0  0  0  0  0  0  0  0  0  0  0
    6.3952    4.1960    0.6184 H   0  0  0  0  0  0  0  0  0  0  0  0
    7.4665    4.0365   -1.6339 H   0  0  0  0  0  0  0  0  0  0  0  0
    8.1464    2.4157   -1.2060 H   0  0  0  0  0  0  0  0  0  0  0  0
    9.4329    3.4433    0.6777 H   0  0  0  0  0  0  0  0  0  0  0  0
    8.7361    5.0630    0.2723 H   0  0  0  0  0  0  0  0  0  0  0  0
   10.4862    3.3370   -1.6020 H   0  0  0  0  0  0  0  0  0  0  0  0
    9.7721    4.9514   -1.9982 H   0  0  0  0  0  0  0  0  0  0  0  0
   11.7779    4.3656    0.2775 H   0  0  0  0  0  0  0  0  0  0  0  0
   11.0439    5.9770   -0.0940 H   0  0  0  0  0  0  0  0  0  0  0  0
   12.0548    5.9238   -2.3801 H   0  0  0  0  0  0  0  0  0  0  0  0
   12.7976    4.3144   -2.0173 H   0  0  0  0  0  0  0  0  0  0  0  0
   16.3784    6.2445   -0.5252 H   0  0  0  0  0  0  0  0  0  0  0  0
   15.6920    7.8811   -0.8648 H   0  0  0  0  0  0  0  0  0  0  0  0
   16.7179    7.8232   -3.1569 H   0  0  0  0  0  0  0  0  0  0  0  0
   17.3857    6.1784   -2.8126 H   0  0  0  0  0  0  0  0  0  0  0  0
    5.2638   -1.3463    2.2846 C   0  0  0  0  0  0  0  0  0  0  0  0
    6.7224   -1.3624    1.7953 C   0  0  0  0  0  0  0  0  0  0  0  0
    7.0164   -2.4947    0.7923 C   0  0  0  0  0  0  0  0  0  0  0  0
    8.4433   -2.4293    0.2217 C   0  0  0  0  0  0  0  0  0  0  0  0
    9.5406   -2.5807    1.2891 C   0  0  0  0  0  0  0  0  0  0  0  0
   10.9606   -2.5996    0.6926 C   0  0  0  0  0  0  0  0  0  0  0  0
   11.3662   -1.3392   -0.0945 C   0  0  0  0  0  0  0  0  0  0  0  0
   12.2667    0.7503    1.0845 C   0  0  0  0  0  0  0  0  0  0  0  0
   13.7299    0.5992    0.7426 C   0  0  0  0  0  0  0  0  0  0  0  0
   14.2010    1.8005   -0.0807 C   0  0  0  0  0  0  0  0  0  0  0  0
   15.6993    1.7015   -0.3983 C   0  0  0  0  0  0  0  0  0  0  0  0
   16.1482    2.9043   -1.2380 C   0  0  0  0  0  0  0  0  0  0  0  0
   17.6286    2.8683   -1.6471 C   0  0  0  0  0  0  0  0  0  0  0  0
   18.5904    2.9762   -0.4505 C   0  0  0  0  0  0  0  0  0  0  0  0
   20.0720    2.9654   -0.8621 C   0  0  0  0  0  0  0  0  0  0  0  0
    8.5594   -1.4617   -0.3105 H   0  0  0  0  0  0  0  0  0  0  0  0
    8.5532   -3.2512   -0.5191 H   0  0  0  0  0  0  0  0  0  0  0  0
    9.3841   -3.5404    1.8282 H   0  0  0  0  0  0  0  0  0  0  0  0
    9.4776   -1.7619    2.0327 H   0  0  0  0  0  0  0  0  0  0  0  0
   11.0510   -3.4768    0.0152 H   0  0  0  0  0  0  0  0  0  0  0  0
   11.6828   -2.7414    1.5263 H   0  0  0  0  0  0  0  0  0  0  0  0
   13.9567   -0.3232    0.1805 H   0  0  0  0  0  0  0  0  0  0  0  0
   14.2999    0.5530    1.6953 H   0  0  0  0  0  0  0  0  0  0  0  0
   15.9515    3.8404   -0.6762 H   0  0  0  0  0  0  0  0  0  0  0  0
   15.5433    2.9174   -2.1712 H   0  0  0  0  0  0  0  0  0  0  0  0
   17.7910    3.7346   -2.3200 H   0  0  0  0  0  0  0  0  0  0  0  0
   17.8343    1.9375   -2.2194 H   0  0  0  0  0  0  0  0  0  0  0  0
   18.4349    2.1065    0.2205 H   0  0  0  0  0  0  0  0  0  0  0  0
   18.3761    3.9047    0.1230 H   0  0  0  0  0  0  0  0  0  0  0  0
    6.3256   -2.4249   -0.0721 H   0  0  0  0  0  0  0  0  0  0  0  0
    6.8480   -3.4784    1.2823 H   0  0  0  0  0  0  0  0  0  0  0  0
    4.9944   -2.3380    2.7071 H   0  0  0  0  0  0  0  0  0  0  0  0
    5.1940   -0.5923    3.0981 H   0  0  0  0  0  0  0  0  0  0  0  0
    7.3650   -1.5066    2.6884 H   0  0  0  0  0  0  0  0  0  0  0  0
    6.9641   -0.3724    1.3485 H   0  0  0  0  0  0  0  0  0  0  0  0
   20.4838    4.1790   -1.6971 C   0  0  0  0  0  0  0  0  0  0  0  0
   20.3005    2.0329   -1.4222 H   0  0  0  0  0  0  0  0  0  0  0  0
   20.6850    2.9700    0.0653 H   0  0  0  0  0  0  0  0  0  0  0  0
   19.9509    4.2043   -2.6687 H   0  0  0  0  0  0  0  0  0  0  0  0
   21.5721    4.1255   -1.9104 H   0  0  0  0  0  0  0  0  0  0  0  0
   20.2793    5.1167   -1.1389 H   0  0  0  0  0  0  0  0  0  0  0  0
   14.0818    5.3289   -0.1312 H   0  0  0  0  0  0  0  0  0  0  0  0
   13.3449    6.9413   -0.4776 H   0  0  0  0  0  0  0  0  0  0  0  0
   14.3578    6.9325   -2.7637 H   0  0  0  0  0  0  0  0  0  0  0  0
   15.0670    5.3060   -2.4516 H   0  0  0  0  0  0  0  0  0  0  0  0
   19.4429    8.0034   -2.7195 C   0  0  0  0  0  0  0  0  0  0  0  0
   18.7084    7.1134   -0.8966 H   0  0  0  0  0  0  0  0  0  0  0  0
   18.0535    8.7599   -1.2489 H   0  0  0  0  0  0  0  0  0  0  0  0
   19.7526    7.0358   -3.1690 H   0  0  0  0  0  0  0  0  0  0  0  0
   20.3220    8.4591   -2.2173 H   0  0  0  0  0  0  0  0  0  0  0  0
   19.0987    8.6867   -3.5248 H   0  0  0  0  0  0  0  0  0  0  0  0
   15.8964    0.7662   -0.9668 H   0  0  0  0  0  0  0  0  0  0  0  0
   16.2615    1.6691    0.5581 H   0  0  0  0  0  0  0  0  0  0  0  0
   14.0095    2.7371    0.4890 H   0  0  0  0  0  0  0  0  0  0  0  0
   13.6225    1.8370   -1.0307 H   0  0  0  0  0  0  0  0  0  0  0  0
   11.2621   -0.0792    0.7385 C   0  0  0  0  0  0  0  0  0  0  0  0
   10.7193   -1.2189   -0.9874 H   0  0  0  0  0  0  0  0  0  0  0  0
   12.3841   -1.5162   -0.4813 H   0  0  0  0  0  0  0  0  0  0  0  0
   12.0027    1.6217    1.6784 H   0  0  0  0  0  0  0  0  0  0  0  0
   10.2691    0.1929    1.0839 H   0  0  0  0  0  0  0  0  0  0  0  0
    1.3943   -2.2095   -0.3331 O   0  0  0  0  0  0  0  0  0  0  0  0
    2.5198   -0.6862   -1.1727 H   0  0  0  0  0  0  0  0  0  0  0  0
    0.7924   -0.3584   -0.9449 H   0  0  0  0  0  0  0  0  0  0  0  0
    2.2691   -2.6740   -0.2675 H   0  0  0  0  0  0  0  0  0  0  0  0
  1  2  1  0  0  0  0
  1  6  1  0  0  0  0
  1  7  1  0  0  0  0
  2  3  1  0  0  0  0
  2  8  1  1  0  0  0
  3103  1  0  0  0  0
  3104  1  0  0  0  0
  3105  1  0  0  0  0
  4  1  1  0  0  0  0
  4  9  1  0  0  0  0
  5  2  1  0  0  0  0
  5 10  1  0  0  0  0
  9 13  1  0  0  0  0
 10 43  1  0  0  0  0
 11  9  2  0  0  0  0
 12 10  2  0  0  0  0
 13 14  1  0  0  0  0
 13 25  1  0  0  0  0
 13 26  1  0  0  0  0
 14 15  1  0  0  0  0
 14 27  1  0  0  0  0
 14 28  1  0  0  0  0
 15 29  1  0  0  0  0
 15 30  1  0  0  0  0
 16 15  1  0  0  0  0
 16 31  1  0  0  0  0
 16 32  1  0  0  0  0
 17 16  1  0  0  0  0
 17 33  1  0  0  0  0
 17 34  1  0  0  0  0
 18 17  1  0  0  0  0
 18 35  1  0  0  0  0
 18 36  1  0  0  0  0
 19 18  1  0  0  0  0
 19 37  1  0  0  0  0
 19 38  1  0  0  0  0
 20 19  1  0  0  0  0
 20 21  1  0  0  0  0
 20 84  1  0  0  0  0
 20 85  1  0  0  0  0
 21 22  1  0  0  0  0
 21 86  1  0  0  0  0
 21 87  1  0  0  0  0
 22 23  1  0  0  0  0
 22 39  1  0  0  0  0
 22 40  1  0  0  0  0
 23 24  1  0  0  0  0
 23 41  1  0  0  0  0
 23 42  1  0  0  0  0
 24 88  1  0  0  0  0
 24 89  1  0  0  0  0
 24 90  1  0  0  0  0
 43 44  1  0  0  0  0
 43 74  1  0  0  0  0
 43 75  1  0  0  0  0
 44 45  1  0  0  0  0
 44 76  1  0  0  0  0
 44 77  1  0  0  0  0
 45 72  1  0  0  0  0
 45 73  1  0  0  0  0
 46 45  1  0  0  0  0
 46 58  1  0  0  0  0
 46 59  1  0  0  0  0
 47 46  1  0  0  0  0
 47 60  1  0  0  0  0
 47 61  1  0  0  0  0
 48 47  1  0  0  0  0
 48 62  1  0  0  0  0
 48 63  1  0  0  0  0
 49 48  1  0  0  0  0
 49 98  1  0  0  0  0
 49 99  1  0  0  0  0
 49100  1  0  0  0  0
 50 98  2  0  0  0  0
 50101  1  0  0  0  0
 51 50  1  0  0  0  0
 51 64  1  0  0  0  0
 51 65  1  0  0  0  0
 52 51  1  0  0  0  0
 52 96  1  0  0  0  0
 52 97  1  0  0  0  0
 53 52  1  0  0  0  0
 53 94  1  0  0  0  0
 53 95  1  0  0  0  0
 54 53  1  0  0  0  0
 54 66  1  0  0  0  0
 54 67  1  0  0  0  0
 55 54  1  0  0  0  0
 55 68  1  0  0  0  0
 55 69  1  0  0  0  0
 56 55  1  0  0  0  0
 56 70  1  0  0  0  0
 56 71  1  0  0  0  0
 57 56  1  0  0  0  0
 57 78  1  0  0  0  0
 57 79  1  0  0  0  0
 57 80  1  0  0  0  0
 78 81  1  0  0  0  0
 78 82  1  0  0  0  0
 78 83  1  0  0  0  0
 88 91  1  0  0  0  0
 88 92  1  0  0  0  0
 88 93  1  0  0  0  0
 98102  1  0  0  0  0
103106  1  0  0  0  0
M  END
