
 OpenBabel06252018193D

 65 64  0  0  1  0  0  0  0  0999 V2000
    5.3870   -1.0130   -0.0603 C   0  5  0  0  0  0  0  0  0  0  0  0
    4.8700   -2.3528   -0.6183 C   0  0  1  0  0  0  0  0  0  0  0  0
    3.6765   -2.1694   -1.5740 C   0  0  0  0  0  0  0  0  0  0  0  0
    5.8886   -3.1105   -1.1855 O   0  0  0  0  0  0  0  0  0  0  0  0
    4.4991   -2.9276    0.2584 H   0  0  0  0  0  0  0  0  0  0  0  0
    6.5997   -2.8675   -2.3204 C   0  0  0  0  0  0  0  0  0  0  0  0
    6.3365   -1.9163   -3.0423 O   0  0  0  0  0  0  0  0  0  0  0  0
    7.7127   -3.8163   -2.6768 C   0  0  0  0  0  0  0  0  0  0  0  0
    8.4413   -3.4377   -3.9787 C   0  0  0  0  0  0  0  0  0  0  0  0
    9.5890   -4.4043   -4.2980 C   0  0  0  0  0  0  0  0  0  0  0  0
   10.2578   -7.0694   -2.7280 C   0  0  0  0  0  0  0  0  0  0  0  0
    9.4667   -7.6528   -1.5824 C   0  0  0  0  0  0  0  0  0  0  0  0
    9.7327   -5.7428    0.0986 C   0  0  0  0  0  0  0  0  0  0  0  0
   12.7517   -4.8573    0.4208 C   0  0  0  0  0  0  0  0  0  0  0  0
   13.1572   -3.5018    0.9430 C   0  0  0  0  0  0  0  0  0  0  0  0
   14.4097   -3.0659    1.1860 C   0  0  0  0  0  0  0  0  0  0  0  0
   15.6943   -3.8385    0.9978 C   0  0  0  0  0  0  0  0  0  0  0  0
   16.5950   -3.1188   -0.0117 C   0  0  0  0  0  0  0  0  0  0  0  0
   17.9271   -3.8640   -0.1906 C   0  0  0  0  0  0  0  0  0  0  0  0
   15.5340   -4.8740    0.6510 H   0  0  0  0  0  0  0  0  0  0  0  0
   16.2084   -3.8938    1.9814 H   0  0  0  0  0  0  0  0  0  0  0  0
   16.7844   -2.0871    0.3528 H   0  0  0  0  0  0  0  0  0  0  0  0
   16.0712   -3.0656   -0.9918 H   0  0  0  0  0  0  0  0  0  0  0  0
    8.8693   -2.4174   -3.8646 H   0  0  0  0  0  0  0  0  0  0  0  0
    7.7221   -3.4228   -4.8274 H   0  0  0  0  0  0  0  0  0  0  0  0
   12.3462   -2.8048    1.1385 H   0  0  0  0  0  0  0  0  0  0  0  0
   14.5131   -2.0503    1.5590 H   0  0  0  0  0  0  0  0  0  0  0  0
   18.8457   -3.2226   -1.2433 C   0  0  0  0  0  0  0  0  0  0  0  0
   17.7072   -4.9015   -0.5259 H   0  0  0  0  0  0  0  0  0  0  0  0
   18.4627   -3.9206    0.7824 H   0  0  0  0  0  0  0  0  0  0  0  0
   19.3185   -1.8188   -0.8646 C   0  0  0  0  0  0  0  0  0  0  0  0
   18.3254   -3.1865   -2.2250 H   0  0  0  0  0  0  0  0  0  0  0  0
   19.7449   -3.8669   -1.3527 H   0  0  0  0  0  0  0  0  0  0  0  0
   18.4679   -1.1108   -0.7986 H   0  0  0  0  0  0  0  0  0  0  0  0
   20.0131   -1.4423   -1.6449 H   0  0  0  0  0  0  0  0  0  0  0  0
   19.8561   -1.8429    0.1070 H   0  0  0  0  0  0  0  0  0  0  0  0
   10.6051   -5.9249    1.3156 C   0  0  0  0  0  0  0  0  0  0  0  0
   11.8909   -5.5419    1.4539 C   0  0  0  0  0  0  0  0  0  0  0  0
   13.6026   -5.5261    0.2104 H   0  0  0  0  0  0  0  0  0  0  0  0
   12.2456   -4.6959   -0.5454 H   0  0  0  0  0  0  0  0  0  0  0  0
   12.3670   -5.7493    2.4088 H   0  0  0  0  0  0  0  0  0  0  0  0
   10.1428   -6.4148    2.1688 H   0  0  0  0  0  0  0  0  0  0  0  0
    9.2519   -7.0924   -0.3743 C   0  0  0  0  0  0  0  0  0  0  0  0
    9.0295   -8.6333   -1.7534 H   0  0  0  0  0  0  0  0  0  0  0  0
    8.6653   -7.6678    0.3373 H   0  0  0  0  0  0  0  0  0  0  0  0
    9.0671   -5.7928   -4.5954 C   0  0  0  0  0  0  0  0  0  0  0  0
   10.3155   -4.3627   -3.4676 H   0  0  0  0  0  0  0  0  0  0  0  0
   10.1161   -4.0440   -5.2069 H   0  0  0  0  0  0  0  0  0  0  0  0
    9.3538   -6.9283   -3.9272 C   0  0  0  0  0  0  0  0  0  0  0  0
   11.0724   -7.7786   -2.9838 H   0  0  0  0  0  0  0  0  0  0  0  0
   10.7541   -6.1317   -2.4605 H   0  0  0  0  0  0  0  0  0  0  0  0
    8.3848   -5.8757   -5.4371 H   0  0  0  0  0  0  0  0  0  0  0  0
    8.8817   -7.8406   -4.2828 H   0  0  0  0  0  0  0  0  0  0  0  0
   10.2275   -5.1719   -0.6925 H   0  0  0  0  0  0  0  0  0  0  0  0
    8.8463   -5.1417    0.3908 H   0  0  0  0  0  0  0  0  0  0  0  0
    8.4438   -3.8172   -1.8414 H   0  0  0  0  0  0  0  0  0  0  0  0
    7.2786   -4.8343   -2.7721 H   0  0  0  0  0  0  0  0  0  0  0  0
    5.8330   -0.1542   -1.0762 O   0  0  0  0  0  0  0  0  0  0  0  0
    4.5702   -0.4990    0.4901 H   0  0  0  0  0  0  0  0  0  0  0  0
    6.8252   -0.1466   -1.0418 H   0  0  0  0  0  0  0  0  0  0  0  0
    3.1688   -3.4147   -1.9709 O   0  0  0  0  0  0  0  0  0  0  0  0
    3.9385   -1.5550   -2.4636 H   0  0  0  0  0  0  0  0  0  0  0  0
    2.8665   -1.6197   -1.0486 H   0  0  0  0  0  0  0  0  0  0  0  0
    3.7299   -3.7244   -2.7289 H   0  0  0  0  0  0  0  0  0  0  0  0
    6.1928   -1.2090    0.6863 H   0  0  0  0  0  0  0  0  0  0  0  0
  1  2  1  0  0  0  0
  1 58  1  0  0  0  0
  1 59  1  0  0  0  0
  1 65  1  0  0  0  0
  2  3  1  0  0  0  0
  2  5  1  1  0  0  0
  3 61  1  0  0  0  0
  3 62  1  0  0  0  0
  3 63  1  0  0  0  0
  4  2  1  0  0  0  0
  4  6  1  0  0  0  0
  7  6  2  0  0  0  0
  8  9  1  0  0  0  0
  8  6  1  0  0  0  0
  8 56  1  0  0  0  0
  8 57  1  0  0  0  0
  9 10  1  0  0  0  0
  9 24  1  0  0  0  0
  9 25  1  0  0  0  0
 10 46  1  0  0  0  0
 10 47  1  0  0  0  0
 10 48  1  0  0  0  0
 11 12  1  0  0  0  0
 11 49  1  0  0  0  0
 11 50  1  0  0  0  0
 11 51  1  0  0  0  0
 12 43  2  0  0  0  0
 12 44  1  0  0  0  0
 13 37  1  0  0  0  0
 13 43  1  0  0  0  0
 13 54  1  0  0  0  0
 13 55  1  0  0  0  0
 14 15  1  0  0  0  0
 14 38  1  0  0  0  0
 14 39  1  0  0  0  0
 14 40  1  0  0  0  0
 15 16  2  0  0  0  0
 15 26  1  0  0  0  0
 16 17  1  0  0  0  0
 16 27  1  0  0  0  0
 17 18  1  0  0  0  0
 17 20  1  0  0  0  0
 17 21  1  0  0  0  0
 18 19  1  0  0  0  0
 18 22  1  0  0  0  0
 18 23  1  0  0  0  0
 19 28  1  0  0  0  0
 19 29  1  0  0  0  0
 19 30  1  0  0  0  0
 28 31  1  0  0  0  0
 28 32  1  0  0  0  0
 28 33  1  0  0  0  0
 31 34  1  0  0  0  0
 31 35  1  0  0  0  0
 31 36  1  0  0  0  0
 37 42  1  0  0  0  0
 38 37  2  0  0  0  0
 38 41  1  0  0  0  0
 43 45  1  0  0  0  0
 46 49  2  0  0  0  0
 46 52  1  0  0  0  0
 49 53  1  0  0  0  0
 58 60  1  0  0  0  0
 61 64  1  0  0  0  0
M  CHG  1   1  -1
M  END
