
 OpenBabel06022019243D

 65 64  0  0  0  0  0  0  0  0999 V2000
    1.9153    0.6689   -0.1795 C   0  0  0  0  0  0  0  0  0  0  0  0
    2.0058   -0.5738    0.7241 C   0  0  0  0  0  0  0  0  0  0  0  0
    1.9303   -1.8736   -0.0929 C   0  0  0  0  0  0  0  0  0  0  0  0
    3.1395   -0.5405    1.5276 O   0  0  0  0  0  0  0  0  0  0  0  0
    1.1230   -0.5570    1.4002 H   0  0  0  0  0  0  0  0  0  0  0  0
    4.4423   -0.5483    1.1333 C   0  0  0  0  0  0  0  0  0  0  0  0
    4.7405   -0.5673   -0.0523 O   0  0  0  0  0  0  0  0  0  0  0  0
    5.5072   -0.5070    2.2009 C   0  0  0  0  0  0  0  0  0  0  0  0
    6.9572   -0.5367    1.6839 C   0  0  0  0  0  0  0  0  0  0  0  0
    7.3294   -1.8822    1.0298 C   0  0  0  0  0  0  0  0  0  0  0  0
    8.7710   -1.9205    0.4946 C   0  0  0  0  0  0  0  0  0  0  0  0
    9.8350   -1.8013    1.6002 C   0  0  0  0  0  0  0  0  0  0  0  0
   11.2710   -1.9825    1.0721 C   0  0  0  0  0  0  0  0  0  0  0  0
   11.7329   -0.9446    0.0337 C   0  0  0  0  0  0  0  0  0  0  0  0
   12.7276    1.3051    0.7514 C   0  0  0  0  0  0  0  0  0  0  0  0
   14.1833    1.0229    0.4611 C   0  0  0  0  0  0  0  0  0  0  0  0
   14.7142    2.0136   -0.5800 C   0  0  0  0  0  0  0  0  0  0  0  0
   16.2044    1.7769   -0.8574 C   0  0  0  0  0  0  0  0  0  0  0  0
   16.7318    2.7685   -1.9062 C   0  0  0  0  0  0  0  0  0  0  0  0
   18.2046    2.5360   -2.2852 C   0  0  0  0  0  0  0  0  0  0  0  0
   19.1801    2.7683   -1.1166 C   0  0  0  0  0  0  0  0  0  0  0  0
   20.6516    2.5371   -1.4993 C   0  0  0  0  0  0  0  0  0  0  0  0
    8.8959   -1.1120   -0.2560 H   0  0  0  0  0  0  0  0  0  0  0  0
    8.9110   -2.8978   -0.0172 H   0  0  0  0  0  0  0  0  0  0  0  0
    9.6529   -2.6012    2.3508 H   0  0  0  0  0  0  0  0  0  0  0  0
    9.7558   -0.8267    2.1210 H   0  0  0  0  0  0  0  0  0  0  0  0
   11.3542   -2.9937    0.6167 H   0  0  0  0  0  0  0  0  0  0  0  0
   11.9683   -1.9455    1.9378 H   0  0  0  0  0  0  0  0  0  0  0  0
   14.3676   -0.0025    0.0971 H   0  0  0  0  0  0  0  0  0  0  0  0
   14.7495    1.1425    1.4097 H   0  0  0  0  0  0  0  0  0  0  0  0
   16.6039    3.8109   -1.5399 H   0  0  0  0  0  0  0  0  0  0  0  0
   16.1267    2.6505   -2.8321 H   0  0  0  0  0  0  0  0  0  0  0  0
   18.4403    3.2487   -3.1022 H   0  0  0  0  0  0  0  0  0  0  0  0
   18.3257    1.5025   -2.6771 H   0  0  0  0  0  0  0  0  0  0  0  0
   18.9481    2.0546   -0.2997 H   0  0  0  0  0  0  0  0  0  0  0  0
   19.0590    3.8016   -0.7241 H   0  0  0  0  0  0  0  0  0  0  0  0
    6.6591   -2.0745    0.1677 H   0  0  0  0  0  0  0  0  0  0  0  0
    7.1861   -2.7073    1.7614 H   0  0  0  0  0  0  0  0  0  0  0  0
    5.3575   -1.3589    2.8988 H   0  0  0  0  0  0  0  0  0  0  0  0
    5.3596    0.4352    2.7711 H   0  0  0  0  0  0  0  0  0  0  0  0
    7.6139   -0.3742    2.5632 H   0  0  0  0  0  0  0  0  0  0  0  0
    7.1160    0.3012    0.9703 H   0  0  0  0  0  0  0  0  0  0  0  0
   21.1756    3.5238   -2.5432 C   0  0  0  0  0  0  0  0  0  0  0  0
   20.7852    1.4979   -1.8707 H   0  0  0  0  0  0  0  0  0  0  0  0
   21.2671    2.6571   -0.5812 H   0  0  0  0  0  0  0  0  0  0  0  0
   20.6432    3.4118   -3.5091 H   0  0  0  0  0  0  0  0  0  0  0  0
   22.2528    3.3261   -2.7265 H   0  0  0  0  0  0  0  0  0  0  0  0
   21.0639    4.5665   -2.1773 H   0  0  0  0  0  0  0  0  0  0  0  0
   16.3463    0.7397   -1.2333 H   0  0  0  0  0  0  0  0  0  0  0  0
   16.7616    1.8956    0.0949 H   0  0  0  0  0  0  0  0  0  0  0  0
   14.5724    3.0525   -0.2073 H   0  0  0  0  0  0  0  0  0  0  0  0
   14.1393    1.8908   -1.5248 H   0  0  0  0  0  0  0  0  0  0  0  0
   11.6854    0.4669    0.5780 C   0  0  0  0  0  0  0  0  0  0  0  0
   11.0966   -0.9952   -0.8733 H   0  0  0  0  0  0  0  0  0  0  0  0
   12.7446   -1.2433   -0.2882 H   0  0  0  0  0  0  0  0  0  0  0  0
   12.5039    2.2916    1.1491 H   0  0  0  0  0  0  0  0  0  0  0  0
   10.7060    0.8486    0.8501 H   0  0  0  0  0  0  0  0  0  0  0  0
    1.9652   -2.9737    0.7734 O   0  0  0  0  0  0  0  0  0  0  0  0
    2.7791   -1.9325   -0.8080 H   0  0  0  0  0  0  0  0  0  0  0  0
    0.9747   -1.8827   -0.6641 H   0  0  0  0  0  0  0  0  0  0  0  0
    1.8973   -3.7798    0.1985 H   0  0  0  0  0  0  0  0  0  0  0  0
    1.9605    1.8400    0.5900 O   0  0  0  0  0  0  0  0  0  0  0  0
    0.9792    0.6454   -0.7835 H   0  0  0  0  0  0  0  0  0  0  0  0
    2.7527    0.6950   -0.9062 H   0  0  0  0  0  0  0  0  0  0  0  0
    1.0570    1.9566    0.9850 H   0  0  0  0  0  0  0  0  0  0  0  0
  1  2  1  0  0  0  0
  1 62  1  0  0  0  0
  1 63  1  0  0  0  0
  1 64  1  0  0  0  0
  2  3  1  0  0  0  0
  2  5  1  0  0  0  0
  3 58  1  0  0  0  0
  3 59  1  0  0  0  0
  3 60  1  0  0  0  0
  4  2  1  0  0  0  0
  4  6  1  0  0  0  0
  6  8  1  0  0  0  0
  7  6  2  0  0  0  0
  8  9  1  0  0  0  0
  8 39  1  0  0  0  0
  8 40  1  0  0  0  0
  9 10  1  0  0  0  0
  9 41  1  0  0  0  0
  9 42  1  0  0  0  0
 10 37  1  0  0  0  0
 10 38  1  0  0  0  0
 11 10  1  0  0  0  0
 11 23  1  0  0  0  0
 11 24  1  0  0  0  0
 12 11  1  0  0  0  0
 12 25  1  0  0  0  0
 12 26  1  0  0  0  0
 13 12  1  0  0  0  0
 13 27  1  0  0  0  0
 13 28  1  0  0  0  0
 14 13  1  0  0  0  0
 14 53  1  0  0  0  0
 14 54  1  0  0  0  0
 14 55  1  0  0  0  0
 15 53  2  0  0  0  0
 15 56  1  0  0  0  0
 16 15  1  0  0  0  0
 16 29  1  0  0  0  0
 16 30  1  0  0  0  0
 17 16  1  0  0  0  0
 17 51  1  0  0  0  0
 17 52  1  0  0  0  0
 18 17  1  0  0  0  0
 18 49  1  0  0  0  0
 18 50  1  0  0  0  0
 19 18  1  0  0  0  0
 19 31  1  0  0  0  0
 19 32  1  0  0  0  0
 20 19  1  0  0  0  0
 20 33  1  0  0  0  0
 20 34  1  0  0  0  0
 21 20  1  0  0  0  0
 21 35  1  0  0  0  0
 21 36  1  0  0  0  0
 22 21  1  0  0  0  0
 22 43  1  0  0  0  0
 22 44  1  0  0  0  0
 22 45  1  0  0  0  0
 43 46  1  0  0  0  0
 43 47  1  0  0  0  0
 43 48  1  0  0  0  0
 53 57  1  0  0  0  0
 58 61  1  0  0  0  0
 62 65  1  0  0  0  0
M  END
