
 OpenBabel09142112533D

 46 48  0  0  0  0  0  0  0  0999 V2000
   -5.6273   -2.8322    5.0924 O   0  0  0  0  0  0  0  0  0  0  0  0
    2.8428   -0.2683    1.9208 O   0  0  0  0  0  0  0  0  0  0  0  0
   -6.0912   -4.1200    3.2931 O   0  0  0  0  0  0  0  0  0  0  0  0
    3.4714   -1.6093    3.6287 O   0  0  0  0  0  0  0  0  0  0  0  0
   -3.5028    1.6527    0.9473 N   0  0  0  0  0  0  0  0  0  0  0  0
   -2.4413    1.5210    3.2138 C   0  0  0  0  0  0  0  0  0  0  0  0
   -3.2899    0.3481    3.6788 C   0  0  0  0  0  0  0  0  0  0  0  0
   -1.0364    1.0492    2.8437 C   0  0  0  0  0  0  0  0  0  0  0  0
   -3.1699    2.2771    2.1139 C   0  0  0  0  0  0  0  0  0  0  0  0
   -3.8145    0.3336    4.9808 C   0  0  0  0  0  0  0  0  0  0  0  0
   -0.2761    0.3810    3.8206 C   0  0  0  0  0  0  0  0  0  0  0  0
   -3.5544   -0.7431    2.8319 C   0  0  0  0  0  0  0  0  0  0  0  0
   -0.4533    1.2629    1.5782 C   0  0  0  0  0  0  0  0  0  0  0  0
   -3.5205    3.6269    2.2891 C   0  0  0  0  0  0  0  0  0  0  0  0
   -4.5908   -0.7409    5.4211 C   0  0  0  0  0  0  0  0  0  0  0  0
    1.0171   -0.0725    3.5458 C   0  0  0  0  0  0  0  0  0  0  0  0
   -4.3314   -1.8187    3.2726 C   0  0  0  0  0  0  0  0  0  0  0  0
    0.8399    0.8101    1.3050 C   0  0  0  0  0  0  0  0  0  0  0  0
   -4.8646   -1.8263    4.5795 C   0  0  0  0  0  0  0  0  0  0  0  0
    1.5902    0.1351    2.2744 C   0  0  0  0  0  0  0  0  0  0  0  0
   -4.1947    4.3016    1.2693 C   0  0  0  0  0  0  0  0  0  0  0  0
   -4.1588    2.2929   -0.0564 C   0  0  0  0  0  0  0  0  0  0  0  0
   -4.5171    3.6337    0.0877 C   0  0  0  0  0  0  0  0  0  0  0  0
   -6.1619   -3.9340    4.4970 C   0  0  0  0  0  0  0  0  0  0  0  0
    3.7440   -1.0468    2.5803 C   0  0  0  0  0  0  0  0  0  0  0  0
   -6.8852   -4.9333    5.3414 C   0  0  0  0  0  0  0  0  0  0  0  0
    5.0990   -1.2383    1.9778 C   0  0  0  0  0  0  0  0  0  0  0  0
   -2.3057    2.2231    4.0672 H   0  0  0  0  0  0  0  0  0  0  0  0
   -3.6252    1.1552    5.6602 H   0  0  0  0  0  0  0  0  0  0  0  0
   -0.6892    0.2095    4.8074 H   0  0  0  0  0  0  0  0  0  0  0  0
   -3.1518   -0.7685    1.8276 H   0  0  0  0  0  0  0  0  0  0  0  0
   -0.9781    1.7808    0.7898 H   0  0  0  0  0  0  0  0  0  0  0  0
   -3.2755    4.1535    3.2030 H   0  0  0  0  0  0  0  0  0  0  0  0
   -4.9857   -0.7290    6.4295 H   0  0  0  0  0  0  0  0  0  0  0  0
    1.5405   -0.5701    4.3443 H   0  0  0  0  0  0  0  0  0  0  0  0
   -4.4881   -2.6254    2.5769 H   0  0  0  0  0  0  0  0  0  0  0  0
    1.2647    0.9865    0.3244 H   0  0  0  0  0  0  0  0  0  0  0  0
   -4.4675    5.3414    1.3954 H   0  0  0  0  0  0  0  0  0  0  0  0
   -4.4022    1.7600   -0.9657 H   0  0  0  0  0  0  0  0  0  0  0  0
   -5.0397    4.1492   -0.7076 H   0  0  0  0  0  0  0  0  0  0  0  0
   -7.9394   -5.0162    5.0035 H   0  0  0  0  0  0  0  0  0  0  0  0
   -6.8729   -4.6202    6.4068 H   0  0  0  0  0  0  0  0  0  0  0  0
   -6.3926   -5.9243    5.2526 H   0  0  0  0  0  0  0  0  0  0  0  0
    4.9957   -1.6958    0.9719 H   0  0  0  0  0  0  0  0  0  0  0  0
    5.6033   -0.2543    1.8813 H   0  0  0  0  0  0  0  0  0  0  0  0
    5.7247   -1.9022    2.6122 H   0  0  0  0  0  0  0  0  0  0  0  0
  1 19  1  0  0  0  0
  1 24  1  0  0  0  0
  2 20  1  0  0  0  0
  2 25  1  0  0  0  0
  3 24  2  0  0  0  0
  4 25  2  0  0  0  0
  5  9  1  0  0  0  0
  5 22  2  0  0  0  0
  6  7  1  0  0  0  0
  6  8  1  0  0  0  0
  6  9  1  0  0  0  0
  6 28  1  0  0  0  0
  7 10  2  0  0  0  0
  7 12  1  0  0  0  0
  8 11  2  0  0  0  0
  8 13  1  0  0  0  0
  9 14  2  0  0  0  0
 10 15  1  0  0  0  0
 10 29  1  0  0  0  0
 11 16  1  0  0  0  0
 11 30  1  0  0  0  0
 12 17  2  0  0  0  0
 12 31  1  0  0  0  0
 13 18  2  0  0  0  0
 13 32  1  0  0  0  0
 14 21  1  0  0  0  0
 14 33  1  0  0  0  0
 15 19  2  0  0  0  0
 15 34  1  0  0  0  0
 16 20  2  0  0  0  0
 16 35  1  0  0  0  0
 17 19  1  0  0  0  0
 17 36  1  0  0  0  0
 18 20  1  0  0  0  0
 18 37  1  0  0  0  0
 21 23  2  0  0  0  0
 21 38  1  0  0  0  0
 22 23  1  0  0  0  0
 22 39  1  0  0  0  0
 23 40  1  0  0  0  0
 24 26  1  0  0  0  0
 25 27  1  0  0  0  0
 26 41  1  0  0  0  0
 26 42  1  0  0  0  0
 26 43  1  0  0  0  0
 27 44  1  0  0  0  0
 27 45  1  0  0  0  0
 27 46  1  0  0  0  0
M  END
