
 OpenBabel09152117253D

 86 90  0  0  1  0  0  0  0  0999 V2000
    5.6510    0.4237    0.4766 O   0  0  0  0  0  0  0  0  0  0  0  0
    6.2127   -1.6869    0.9882 O   0  0  0  0  0  0  0  0  0  0  0  0
   -3.0617    0.3212   -0.4580 C   0  0  1  0  0  0  0  0  0  0  0  0
   -2.1855   -0.9220   -0.1756 C   0  0  2  0  0  0  0  0  0  0  0  0
   -0.7059   -0.7573   -0.5997 C   0  0  1  0  0  0  0  0  0  0  0  0
   -0.0867    0.4650    0.1201 C   0  0  1  0  0  0  0  0  0  0  0  0
   -4.4358   -0.2268    0.0421 C   0  0  2  0  0  0  0  0  0  0  0  0
   -2.4432    1.4816    0.3787 C   0  0  0  0  0  0  0  0  0  0  0  0
    1.4171    0.6833   -0.3346 C   0  0  2  0  0  0  0  0  0  0  0  0
   -2.9743   -2.0605   -0.7951 C   0  0  0  0  0  0  0  0  0  0  0  0
   -0.9761    1.7398   -0.0232 C   0  0  0  0  0  0  0  0  0  0  0  0
   -4.4346   -1.7013   -0.4704 C   0  0  0  0  0  0  0  0  0  0  0  0
    0.0850   -2.0260   -0.2174 C   0  0  0  0  0  0  0  0  0  0  0  0
   -5.7821    0.5181   -0.2695 C   0  0  1  0  0  0  0  0  0  0  0  0
   -3.1579    0.7110   -1.9686 C   0  0  0  0  0  0  0  0  0  0  0  0
    2.1836   -0.6486   -0.3798 C   0  0  0  0  0  0  0  0  0  0  0  0
    2.1135    1.5904    0.7290 C   0  0  0  0  0  0  0  0  0  0  0  0
    1.5742   -1.8496   -0.2951 C   0  0  0  0  0  0  0  0  0  0  0  0
    1.5144    1.3321   -1.7441 C   0  0  0  0  0  0  0  0  0  0  0  0
    3.6965   -0.5924   -0.5056 C   0  0  0  0  0  0  0  0  0  0  0  0
    3.6399    1.6874    0.5520 C   0  0  0  0  0  0  0  0  0  0  0  0
   -6.9713   -0.2523    0.3781 C   0  0  0  0  0  0  0  0  0  0  0  0
    4.2798    0.2893    0.6144 C   0  0  2  0  0  0  0  0  0  0  0  0
   -5.7606    1.9803    0.2075 C   0  0  0  0  0  0  0  0  0  0  0  0
   -8.3616    0.3096    0.0268 C   0  0  0  0  0  0  0  0  0  0  0  0
   -9.4739   -0.5705    0.6227 C   0  0  0  0  0  0  0  0  0  0  0  0
  -10.9001   -0.1101    0.2385 C   0  0  0  0  0  0  0  0  0  0  0  0
    6.5650   -0.5725    0.6252 C   0  0  0  0  0  0  0  0  0  0  0  0
  -11.9267   -1.1170    0.7750 C   0  0  0  0  0  0  0  0  0  0  0  0
  -11.2327    1.2915    0.7747 C   0  0  0  0  0  0  0  0  0  0  0  0
    7.9988   -0.2969    0.3631 C   0  0  0  0  0  0  0  0  0  0  0  0
    8.9667   -1.3079    0.5180 C   0  0  0  0  0  0  0  0  0  0  0  0
    8.4125    0.9842   -0.0472 C   0  0  0  0  0  0  0  0  0  0  0  0
   10.3163   -1.0402    0.2677 C   0  0  0  0  0  0  0  0  0  0  0  0
    9.7634    1.2461   -0.2960 C   0  0  0  0  0  0  0  0  0  0  0  0
   10.7143    0.2353   -0.1388 C   0  0  0  0  0  0  0  0  0  0  0  0
   -2.1900   -1.1038    0.9285 H   0  0  0  0  0  0  0  0  0  0  0  0
   -0.6417   -0.6020   -1.6959 H   0  0  0  0  0  0  0  0  0  0  0  0
   -0.0926    0.1956    1.2024 H   0  0  0  0  0  0  0  0  0  0  0  0
   -4.3306   -0.2872    1.1520 H   0  0  0  0  0  0  0  0  0  0  0  0
   -2.4601    1.2138    1.4585 H   0  0  0  0  0  0  0  0  0  0  0  0
   -2.9957    2.4291    0.2686 H   0  0  0  0  0  0  0  0  0  0  0  0
   -2.6770   -3.0842   -0.4839 H   0  0  0  0  0  0  0  0  0  0  0  0
   -2.8286   -2.0018   -1.8950 H   0  0  0  0  0  0  0  0  0  0  0  0
   -0.5784    2.5554    0.6147 H   0  0  0  0  0  0  0  0  0  0  0  0
   -0.9739    2.1102   -1.0630 H   0  0  0  0  0  0  0  0  0  0  0  0
   -4.8611   -2.3534    0.3227 H   0  0  0  0  0  0  0  0  0  0  0  0
   -5.0203   -1.8408   -1.4060 H   0  0  0  0  0  0  0  0  0  0  0  0
   -0.1355   -2.3529    0.8221 H   0  0  0  0  0  0  0  0  0  0  0  0
   -0.2257   -2.8381   -0.9089 H   0  0  0  0  0  0  0  0  0  0  0  0
   -5.9353    0.5227   -1.3710 H   0  0  0  0  0  0  0  0  0  0  0  0
   -3.6289   -0.0775   -2.5875 H   0  0  0  0  0  0  0  0  0  0  0  0
   -3.7821    1.6189   -2.0897 H   0  0  0  0  0  0  0  0  0  0  0  0
   -2.1742    0.9260   -2.4249 H   0  0  0  0  0  0  0  0  0  0  0  0
    1.6835    2.6136    0.7191 H   0  0  0  0  0  0  0  0  0  0  0  0
    1.9401    1.1620    1.7418 H   0  0  0  0  0  0  0  0  0  0  0  0
    2.1718   -2.7566   -0.2729 H   0  0  0  0  0  0  0  0  0  0  0  0
    1.0687    2.3461   -1.7592 H   0  0  0  0  0  0  0  0  0  0  0  0
    2.5595    1.4675   -2.0805 H   0  0  0  0  0  0  0  0  0  0  0  0
    1.0113    0.7067   -2.5090 H   0  0  0  0  0  0  0  0  0  0  0  0
    3.9705   -0.1555   -1.4879 H   0  0  0  0  0  0  0  0  0  0  0  0
    4.1428   -1.6088   -0.4739 H   0  0  0  0  0  0  0  0  0  0  0  0
    3.8910    2.1822   -0.4097 H   0  0  0  0  0  0  0  0  0  0  0  0
    4.0563    2.3172    1.3682 H   0  0  0  0  0  0  0  0  0  0  0  0
   -6.9592   -1.2996    0.0117 H   0  0  0  0  0  0  0  0  0  0  0  0
   -6.8475   -0.2713    1.4835 H   0  0  0  0  0  0  0  0  0  0  0  0
    4.0514   -0.1596    1.6082 H   0  0  0  0  0  0  0  0  0  0  0  0
   -5.0017    2.5603   -0.3404 H   0  0  0  0  0  0  0  0  0  0  0  0
   -6.7072    2.5021   -0.0277 H   0  0  0  0  0  0  0  0  0  0  0  0
   -5.5748    2.0377    1.3011 H   0  0  0  0  0  0  0  0  0  0  0  0
   -8.4731    0.3345   -1.0793 H   0  0  0  0  0  0  0  0  0  0  0  0
   -8.4629    1.3332    0.4307 H   0  0  0  0  0  0  0  0  0  0  0  0
   -9.3327   -1.6045    0.2363 H   0  0  0  0  0  0  0  0  0  0  0  0
   -9.3731   -0.5974    1.7306 H   0  0  0  0  0  0  0  0  0  0  0  0
  -10.9864   -0.0949   -0.8707 H   0  0  0  0  0  0  0  0  0  0  0  0
  -11.7273   -2.1286    0.3612 H   0  0  0  0  0  0  0  0  0  0  0  0
  -12.9533   -0.8199    0.4711 H   0  0  0  0  0  0  0  0  0  0  0  0
  -11.8838   -1.1702    1.8843 H   0  0  0  0  0  0  0  0  0  0  0  0
  -10.5610    2.0595    0.3421 H   0  0  0  0  0  0  0  0  0  0  0  0
  -11.1491    1.3175    1.8824 H   0  0  0  0  0  0  0  0  0  0  0  0
  -12.2693    1.5715    0.4892 H   0  0  0  0  0  0  0  0  0  0  0  0
    8.6821   -2.3045    0.8318 H   0  0  0  0  0  0  0  0  0  0  0  0
    7.6943    1.7841   -0.1764 H   0  0  0  0  0  0  0  0  0  0  0  0
   11.0541   -1.8228    0.3890 H   0  0  0  0  0  0  0  0  0  0  0  0
   10.0731    2.2342   -0.6113 H   0  0  0  0  0  0  0  0  0  0  0  0
   11.7593    0.4404   -0.3321 H   0  0  0  0  0  0  0  0  0  0  0  0
  1 23  1  0  0  0  0
  1 28  1  0  0  0  0
  2 28  2  0  0  0  0
  3  4  1  1  0  0  0
  3  8  1  0  0  0  0
  3 15  1  0  0  0  0
  4  5  1  6  0  0  0
  4 10  1  0  0  0  0
  4 37  1  0  0  0  0
  5  6  1  1  0  0  0
  5 13  1  0  0  0  0
  5 38  1  0  0  0  0
  6  9  1  6  0  0  0
  6 11  1  0  0  0  0
  6 39  1  0  0  0  0
  7  3  1  6  0  0  0
  7 12  1  0  0  0  0
  7 14  1  0  0  0  0
  7 40  1  0  0  0  0
  8 11  1  0  0  0  0
  8 41  1  0  0  0  0
  8 42  1  0  0  0  0
  9 16  1  0  0  0  0
  9 17  1  0  0  0  0
  9 19  1  6  0  0  0
 10 12  1  0  0  0  0
 10 43  1  0  0  0  0
 10 44  1  0  0  0  0
 11 45  1  0  0  0  0
 11 46  1  0  0  0  0
 12 47  1  0  0  0  0
 12 48  1  0  0  0  0
 13 18  1  0  0  0  0
 13 49  1  0  0  0  0
 13 50  1  0  0  0  0
 14 22  1  0  0  0  0
 14 24  1  0  0  0  0
 14 51  1  6  0  0  0
 15 52  1  0  0  0  0
 15 53  1  0  0  0  0
 15 54  1  0  0  0  0
 16 18  2  0  0  0  0
 16 20  1  0  0  0  0
 17 21  1  0  0  0  0
 17 55  1  0  0  0  0
 17 56  1  0  0  0  0
 18 57  1  0  0  0  0
 19 58  1  0  0  0  0
 19 59  1  0  0  0  0
 19 60  1  0  0  0  0
 20 23  1  0  0  0  0
 20 61  1  0  0  0  0
 20 62  1  0  0  0  0
 21 23  1  0  0  0  0
 21 63  1  0  0  0  0
 21 64  1  0  0  0  0
 22 25  1  0  0  0  0
 22 65  1  0  0  0  0
 22 66  1  0  0  0  0
 23 67  1  1  0  0  0
 24 68  1  0  0  0  0
 24 69  1  0  0  0  0
 24 70  1  0  0  0  0
 25 26  1  0  0  0  0
 25 71  1  0  0  0  0
 25 72  1  0  0  0  0
 26 27  1  0  0  0  0
 26 73  1  0  0  0  0
 26 74  1  0  0  0  0
 27 29  1  0  0  0  0
 27 30  1  0  0  0  0
 27 75  1  0  0  0  0
 28 31  1  0  0  0  0
 29 76  1  0  0  0  0
 29 77  1  0  0  0  0
 29 78  1  0  0  0  0
 30 79  1  0  0  0  0
 30 80  1  0  0  0  0
 30 81  1  0  0  0  0
 31 32  2  0  0  0  0
 31 33  1  0  0  0  0
 32 34  1  0  0  0  0
 32 82  1  0  0  0  0
 33 35  2  0  0  0  0
 33 83  1  0  0  0  0
 34 36  2  0  0  0  0
 34 84  1  0  0  0  0
 35 36  1  0  0  0  0
 35 85  1  0  0  0  0
 36 86  1  0  0  0  0
M  END
