
 OpenBabel09152116383D

 79 82  0  0  1  0  0  0  0  0999 V2000
    6.5232   -0.1535   -1.0991 O   0  0  0  0  0  0  0  0  0  0  0  0
    7.0568    1.4759    0.3567 O   0  0  0  0  0  0  0  0  0  0  0  0
   -2.0461   -1.5410    0.0848 C   0  0  1  0  0  0  0  0  0  0  0  0
   -1.1813   -0.5654    0.9162 C   0  0  2  0  0  0  0  0  0  0  0  0
    0.3287   -0.9047    0.9126 C   0  0  1  0  0  0  0  0  0  0  0  0
    0.8553   -0.9289   -0.5431 C   0  0  1  0  0  0  0  0  0  0  0  0
   -3.4466   -0.9117    0.3559 C   0  0  2  0  0  0  0  0  0  0  0  0
   -1.5294   -1.4409   -1.3806 C   0  0  0  0  0  0  0  0  0  0  0  0
    2.3934   -1.3138   -0.5800 C   0  0  2  0  0  0  0  0  0  0  0  0
   -1.8956   -0.5090    2.2555 C   0  0  0  0  0  0  0  0  0  0  0  0
   -0.0350   -1.8136   -1.4719 C   0  0  0  0  0  0  0  0  0  0  0  0
   -3.3865   -0.5510    1.8708 C   0  0  0  0  0  0  0  0  0  0  0  0
    1.0980    0.1662    1.7142 C   0  0  0  0  0  0  0  0  0  0  0  0
   -4.7660   -1.6638   -0.0289 C   0  0  1  0  0  0  0  0  0  0  0  0
   -2.0120   -3.0204    0.5865 C   0  0  0  0  0  0  0  0  0  0  0  0
    3.1808   -0.5618    0.5054 C   0  0  0  0  0  0  0  0  0  0  0  0
    2.9638   -0.8738   -1.9659 C   0  0  0  0  0  0  0  0  0  0  0  0
    2.5844    0.1191    1.5061 C   0  0  0  0  0  0  0  0  0  0  0  0
    2.6224   -2.8354   -0.3605 C   0  0  0  0  0  0  0  0  0  0  0  0
    4.6977   -0.5780    0.4217 C   0  0  0  0  0  0  0  0  0  0  0  0
    4.4987   -0.9535   -2.0552 C   0  0  0  0  0  0  0  0  0  0  0  0
   -6.0419   -0.8721    0.3836 C   0  0  0  0  0  0  0  0  0  0  0  0
    5.1467   -0.0814   -0.9655 C   0  0  2  0  0  0  0  0  0  0  0  0
   -4.8408   -2.0419   -1.5159 C   0  0  0  0  0  0  0  0  0  0  0  0
   -6.2130    0.5007   -0.2957 C   0  0  0  0  0  0  0  0  0  0  0  0
   -7.5120    1.1810    0.1756 C   0  0  0  0  0  0  0  0  0  0  0  0
   -7.7864    2.5770   -0.4375 C   0  0  0  0  0  0  0  0  0  0  0  0
    7.4230    0.5985   -0.4122 C   0  0  0  0  0  0  0  0  0  0  0  0
   -7.9622    2.5209   -1.9615 C   0  0  0  0  0  0  0  0  0  0  0  0
   -6.7093    3.6032   -0.0577 C   0  0  0  0  0  0  0  0  0  0  0  0
    8.8848    0.3638   -0.6149 C   0  0  0  0  0  0  0  0  0  0  0  0
   -1.2839    0.4542    0.4668 H   0  0  0  0  0  0  0  0  0  0  0  0
    0.4955   -1.8995    1.3740 H   0  0  0  0  0  0  0  0  0  0  0  0
    0.7466    0.1199   -0.9065 H   0  0  0  0  0  0  0  0  0  0  0  0
   -3.4238    0.0551   -0.1963 H   0  0  0  0  0  0  0  0  0  0  0  0
   -1.6435   -0.3965   -1.7470 H   0  0  0  0  0  0  0  0  0  0  0  0
   -2.0896   -2.0944   -2.0708 H   0  0  0  0  0  0  0  0  0  0  0  0
   -1.6439   -1.4429    2.8026 H   0  0  0  0  0  0  0  0  0  0  0  0
   -1.6182    0.3394    2.9162 H   0  0  0  0  0  0  0  0  0  0  0  0
    0.2867   -1.7030   -2.5276 H   0  0  0  0  0  0  0  0  0  0  0  0
    0.0623   -2.8823   -1.2128 H   0  0  0  0  0  0  0  0  0  0  0  0
   -3.8674   -1.3173    2.5183 H   0  0  0  0  0  0  0  0  0  0  0  0
   -3.8990    0.4228    2.0286 H   0  0  0  0  0  0  0  0  0  0  0  0
    0.8708    0.0098    2.7904 H   0  0  0  0  0  0  0  0  0  0  0  0
    0.7800    1.1955    1.4393 H   0  0  0  0  0  0  0  0  0  0  0  0
   -4.8024   -2.6159    0.5446 H   0  0  0  0  0  0  0  0  0  0  0  0
   -2.4087   -3.1364    1.6140 H   0  0  0  0  0  0  0  0  0  0  0  0
   -0.9948   -3.4534    0.5905 H   0  0  0  0  0  0  0  0  0  0  0  0
   -2.6399   -3.6578   -0.0687 H   0  0  0  0  0  0  0  0  0  0  0  0
    2.5230   -1.4785   -2.7857 H   0  0  0  0  0  0  0  0  0  0  0  0
    2.6930    0.1903   -2.1494 H   0  0  0  0  0  0  0  0  0  0  0  0
    3.1904    0.6813    2.2111 H   0  0  0  0  0  0  0  0  0  0  0  0
    2.2096   -3.1661    0.6141 H   0  0  0  0  0  0  0  0  0  0  0  0
    3.6941   -3.1096   -0.3628 H   0  0  0  0  0  0  0  0  0  0  0  0
    2.1634   -3.4386   -1.1682 H   0  0  0  0  0  0  0  0  0  0  0  0
    5.1530    0.0410    1.2233 H   0  0  0  0  0  0  0  0  0  0  0  0
    5.0664   -1.6137    0.5710 H   0  0  0  0  0  0  0  0  0  0  0  0
    4.8184   -0.5876   -3.0552 H   0  0  0  0  0  0  0  0  0  0  0  0
    4.8419   -2.0051   -1.9608 H   0  0  0  0  0  0  0  0  0  0  0  0
   -6.9312   -1.4980    0.1483 H   0  0  0  0  0  0  0  0  0  0  0  0
   -6.0399   -0.7256    1.4847 H   0  0  0  0  0  0  0  0  0  0  0  0
    4.8180    0.9726   -1.1155 H   0  0  0  0  0  0  0  0  0  0  0  0
   -4.7253   -1.1527   -2.1694 H   0  0  0  0  0  0  0  0  0  0  0  0
   -5.8136   -2.5305   -1.7372 H   0  0  0  0  0  0  0  0  0  0  0  0
   -4.0703   -2.7890   -1.7708 H   0  0  0  0  0  0  0  0  0  0  0  0
   -6.2506    0.3631   -1.3939 H   0  0  0  0  0  0  0  0  0  0  0  0
   -5.3537    1.1474   -0.0356 H   0  0  0  0  0  0  0  0  0  0  0  0
   -7.4768    1.2893    1.2823 H   0  0  0  0  0  0  0  0  0  0  0  0
   -8.3710    0.5180   -0.0697 H   0  0  0  0  0  0  0  0  0  0  0  0
   -8.7486    2.9314   -0.0052 H   0  0  0  0  0  0  0  0  0  0  0  0
   -8.7700    1.8066   -2.2279 H   0  0  0  0  0  0  0  0  0  0  0  0
   -8.2463    3.5231   -2.3477 H   0  0  0  0  0  0  0  0  0  0  0  0
   -7.0241    2.2131   -2.4679 H   0  0  0  0  0  0  0  0  0  0  0  0
   -5.7231    3.3380   -0.4916 H   0  0  0  0  0  0  0  0  0  0  0  0
   -6.9913    4.6078   -0.4390 H   0  0  0  0  0  0  0  0  0  0  0  0
   -6.6143    3.6676    1.0471 H   0  0  0  0  0  0  0  0  0  0  0  0
    9.3621    1.2885   -1.0017 H   0  0  0  0  0  0  0  0  0  0  0  0
    9.0458   -0.4570   -1.3453 H   0  0  0  0  0  0  0  0  0  0  0  0
    9.3558    0.0839    0.3506 H   0  0  0  0  0  0  0  0  0  0  0  0
  1 23  1  0  0  0  0
  1 28  1  0  0  0  0
  2 28  2  0  0  0  0
  3  4  1  1  0  0  0
  3  8  1  0  0  0  0
  3 15  1  0  0  0  0
  4  5  1  1  0  0  0
  4 10  1  0  0  0  0
  4 32  1  0  0  0  0
  5  6  1  6  0  0  0
  5 13  1  0  0  0  0
  5 33  1  0  0  0  0
  6  9  1  6  0  0  0
  6 11  1  0  0  0  0
  6 34  1  0  0  0  0
  7  3  1  6  0  0  0
  7 12  1  0  0  0  0
  7 14  1  0  0  0  0
  7 35  1  0  0  0  0
  8 11  1  0  0  0  0
  8 36  1  0  0  0  0
  8 37  1  0  0  0  0
  9 16  1  0  0  0  0
  9 17  1  0  0  0  0
  9 19  1  1  0  0  0
 10 12  1  0  0  0  0
 10 38  1  0  0  0  0
 10 39  1  0  0  0  0
 11 40  1  0  0  0  0
 11 41  1  0  0  0  0
 12 42  1  0  0  0  0
 12 43  1  0  0  0  0
 13 18  1  0  0  0  0
 13 44  1  0  0  0  0
 13 45  1  0  0  0  0
 14 22  1  0  0  0  0
 14 24  1  0  0  0  0
 14 46  1  1  0  0  0
 15 47  1  0  0  0  0
 15 48  1  0  0  0  0
 15 49  1  0  0  0  0
 16 18  2  0  0  0  0
 16 20  1  0  0  0  0
 17 21  1  0  0  0  0
 17 50  1  0  0  0  0
 17 51  1  0  0  0  0
 18 52  1  0  0  0  0
 19 53  1  0  0  0  0
 19 54  1  0  0  0  0
 19 55  1  0  0  0  0
 20 23  1  0  0  0  0
 20 56  1  0  0  0  0
 20 57  1  0  0  0  0
 21 23  1  0  0  0  0
 21 58  1  0  0  0  0
 21 59  1  0  0  0  0
 22 25  1  0  0  0  0
 22 60  1  0  0  0  0
 22 61  1  0  0  0  0
 23 62  1  6  0  0  0
 24 63  1  0  0  0  0
 24 64  1  0  0  0  0
 24 65  1  0  0  0  0
 25 26  1  0  0  0  0
 25 66  1  0  0  0  0
 25 67  1  0  0  0  0
 26 27  1  0  0  0  0
 26 68  1  0  0  0  0
 26 69  1  0  0  0  0
 27 29  1  0  0  0  0
 27 30  1  0  0  0  0
 27 70  1  0  0  0  0
 28 31  1  0  0  0  0
 29 71  1  0  0  0  0
 29 72  1  0  0  0  0
 29 73  1  0  0  0  0
 30 74  1  0  0  0  0
 30 75  1  0  0  0  0
 30 76  1  0  0  0  0
 31 77  1  0  0  0  0
 31 78  1  0  0  0  0
 31 79  1  0  0  0  0
M  END
