
 OpenBabel09142100423D

 43 47  0  0  1  0  0  0  0  0999 V2000
   -1.6194   -0.9819    0.9624 O   0  0  0  0  0  0  0  0  0  0  0  0
   -1.4770   -3.6848    0.1607 O   0  0  0  0  0  0  0  0  0  0  0  0
   -3.7596    0.8301    0.3025 O   0  0  0  0  0  0  0  0  0  0  0  0
    3.3061    0.6015    0.4817 N   0  0  0  0  0  0  0  0  0  0  0  0
    0.6891   -0.6063    0.6538 C   0  0  1  0  0  0  0  0  0  0  0  0
    1.6846   -1.0081   -0.4613 C   0  0  2  0  0  0  0  0  0  0  0  0
    2.5475    0.2714   -0.7577 C   0  0  1  0  0  0  0  0  0  0  0  0
   -0.4023   -1.6647    1.0370 C   0  0  2  0  0  0  0  0  0  0  0  0
    1.4520   -0.1301    1.9148 C   0  0  0  0  0  0  0  0  0  0  0  0
   -0.1636    0.4607    0.0981 C   0  0  0  0  0  0  0  0  0  0  0  0
    1.6647    1.4825   -1.2691 C   0  0  0  0  0  0  0  0  0  0  0  0
    2.4354    0.9981    1.6017 C   0  0  0  0  0  0  0  0  0  0  0  0
    0.2479    1.5003   -0.7219 C   0  0  0  0  0  0  0  0  0  0  0  0
   -0.3354   -2.8768    0.0612 C   0  0  2  0  0  0  0  0  0  0  0  0
    0.8770   -1.5468   -1.6337 C   0  0  0  0  0  0  0  0  0  0  0  0
   -1.4653    0.2170    0.3768 C   0  0  0  0  0  0  0  0  0  0  0  0
   -0.1136   -2.4271   -1.3721 C   0  0  0  0  0  0  0  0  0  0  0  0
    4.3833    1.5819    0.2686 C   0  0  0  0  0  0  0  0  0  0  0  0
   -0.7254    2.4234   -1.1444 C   0  0  0  0  0  0  0  0  0  0  0  0
   -2.4693    1.1052   -0.0157 C   0  0  0  0  0  0  0  0  0  0  0  0
   -2.0762    2.2476   -0.7651 C   0  0  0  0  0  0  0  0  0  0  0  0
   -4.8478    1.6106   -0.0262 C   0  0  0  0  0  0  0  0  0  0  0  0
    2.3367   -1.8291   -0.0877 H   0  0  0  0  0  0  0  0  0  0  0  0
    3.2926    0.0263   -1.5473 H   0  0  0  0  0  0  0  0  0  0  0  0
   -0.2733   -2.0488    2.0733 H   0  0  0  0  0  0  0  0  0  0  0  0
    2.0288   -0.9953    2.3104 H   0  0  0  0  0  0  0  0  0  0  0  0
    0.7497    0.2067    2.7091 H   0  0  0  0  0  0  0  0  0  0  0  0
    1.5211    1.3308   -2.3607 H   0  0  0  0  0  0  0  0  0  0  0  0
    2.1737    2.4585   -1.1571 H   0  0  0  0  0  0  0  0  0  0  0  0
    1.8895    1.9354    1.3609 H   0  0  0  0  0  0  0  0  0  0  0  0
    3.0378    1.1965    2.5155 H   0  0  0  0  0  0  0  0  0  0  0  0
    0.5725   -3.4713    0.3205 H   0  0  0  0  0  0  0  0  0  0  0  0
    1.0213   -1.1690   -2.6410 H   0  0  0  0  0  0  0  0  0  0  0  0
   -0.7600   -2.7754   -2.1719 H   0  0  0  0  0  0  0  0  0  0  0  0
    3.9886    2.5990    0.0686 H   0  0  0  0  0  0  0  0  0  0  0  0
    5.0357    1.2657   -0.5730 H   0  0  0  0  0  0  0  0  0  0  0  0
    5.0234    1.6366    1.1749 H   0  0  0  0  0  0  0  0  0  0  0  0
   -0.4518    3.2470   -1.7914 H   0  0  0  0  0  0  0  0  0  0  0  0
   -2.8081    2.9644   -1.1119 H   0  0  0  0  0  0  0  0  0  0  0  0
   -1.3881   -4.1997    1.0047 H   0  0  0  0  0  0  0  0  0  0  0  0
   -4.7477    2.6192    0.4286 H   0  0  0  0  0  0  0  0  0  0  0  0
   -5.7682    1.1339    0.3687 H   0  0  0  0  0  0  0  0  0  0  0  0
   -4.9391    1.6974   -1.1299 H   0  0  0  0  0  0  0  0  0  0  0  0
  1  8  1  0  0  0  0
  1 16  1  0  0  0  0
  2 14  1  0  0  0  0
  2 40  1  0  0  0  0
  3 20  1  0  0  0  0
  3 22  1  0  0  0  0
  4  7  1  0  0  0  0
  4 12  1  0  0  0  0
  4 18  1  0  0  0  0
  5  6  1  6  0  0  0
  5  9  1  0  0  0  0
  5 10  1  0  0  0  0
  6  7  1  6  0  0  0
  6 15  1  0  0  0  0
  6 23  1  0  0  0  0
  7 11  1  0  0  0  0
  7 24  1  6  0  0  0
  8  5  1  6  0  0  0
  8 25  1  0  0  0  0
  9 12  1  0  0  0  0
  9 26  1  0  0  0  0
  9 27  1  0  0  0  0
 10 13  2  0  0  0  0
 10 16  1  0  0  0  0
 11 13  1  0  0  0  0
 11 28  1  0  0  0  0
 11 29  1  0  0  0  0
 12 30  1  0  0  0  0
 12 31  1  0  0  0  0
 13 19  1  0  0  0  0
 14  8  1  1  0  0  0
 14 17  1  0  0  0  0
 14 32  1  0  0  0  0
 15 17  2  0  0  0  0
 15 33  1  0  0  0  0
 16 20  2  0  0  0  0
 17 34  1  0  0  0  0
 18 35  1  0  0  0  0
 18 36  1  0  0  0  0
 18 37  1  0  0  0  0
 19 21  2  0  0  0  0
 19 38  1  0  0  0  0
 20 21  1  0  0  0  0
 21 39  1  0  0  0  0
 22 41  1  0  0  0  0
 22 42  1  0  0  0  0
 22 43  1  0  0  0  0
M  END
