
 OpenBabel09152118263D

 59 62  0  0  1  0  0  0  0  0999 V2000
   -2.4525    0.8903   -1.5452 O   0  0  0  0  0  0  0  0  0  0  0  0
    0.8647   -1.9960    1.3642 O   0  0  0  0  0  0  0  0  0  0  0  0
   -4.4936    1.5039    1.0286 O   0  0  0  0  0  0  0  0  0  0  0  0
   -5.4360   -0.7453   -0.3202 O   0  0  0  0  0  0  0  0  0  0  0  0
    6.5297   -1.4795   -1.8169 O   0  0  0  0  0  0  0  0  0  0  0  0
   -5.6720   -2.9778   -0.2530 O   0  0  0  0  0  0  0  0  0  0  0  0
   -0.1001    1.5599   -0.1931 C   0  0  2  0  0  0  0  0  0  0  0  0
   -1.1455    0.6399    0.4841 C   0  0  1  0  0  0  0  0  0  0  0  0
    1.3535    1.3163    0.2885 C   0  0  1  0  0  0  0  0  0  0  0  0
    1.7349   -0.1817    0.0229 C   0  0  1  0  0  0  0  0  0  0  0  0
   -2.4491    1.2102   -0.1693 C   0  0  1  0  0  0  0  0  0  0  0  0
    3.2149   -0.5154    0.4681 C   0  0  2  0  0  0  0  0  0  0  0  0
   -0.6859    2.9632   -0.0291 C   0  0  0  0  0  0  0  0  0  0  0  0
   -0.7875   -0.8287    0.1415 C   0  0  0  0  0  0  0  0  0  0  0  0
   -2.2173    2.7461   -0.0226 C   0  0  0  0  0  0  0  0  0  0  0  0
    2.3407    2.2460   -0.4519 C   0  0  0  0  0  0  0  0  0  0  0  0
    0.6360   -1.0936    0.5747 C   0  0  0  0  0  0  0  0  0  0  0  0
   -1.1859    0.7849    2.0436 C   0  0  0  0  0  0  0  0  0  0  0  0
    4.1386    0.5526   -0.1577 C   0  0  0  0  0  0  0  0  0  0  0  0
    3.7686    2.0076    0.0328 C   0  0  0  0  0  0  0  0  0  0  0  0
    3.5681   -1.9512   -0.0698 C   0  0  0  0  0  0  0  0  0  0  0  0
   -3.7621    0.7200    0.4409 C   0  0  0  0  0  0  0  0  0  0  0  0
    3.4019   -0.4509    2.0088 C   0  0  0  0  0  0  0  0  0  0  0  0
    5.0700   -2.2004   -0.0963 C   0  0  0  0  0  0  0  0  0  0  0  0
    5.2458    0.2332   -0.8657 C   0  0  0  0  0  0  0  0  0  0  0  0
    5.6817   -1.1684   -0.9953 C   0  0  0  0  0  0  0  0  0  0  0  0
   -4.2102   -0.7085    0.3127 C   0  0  0  0  0  0  0  0  0  0  0  0
   -6.1210   -1.8875   -0.5789 C   0  0  0  0  0  0  0  0  0  0  0  0
   -7.4425   -1.8040   -1.2726 C   0  0  0  0  0  0  0  0  0  0  0  0
   -0.1165    1.3443   -1.2885 H   0  0  0  0  0  0  0  0  0  0  0  0
    1.4031    1.5414    1.3733 H   0  0  0  0  0  0  0  0  0  0  0  0
    1.6969   -0.3116   -1.0835 H   0  0  0  0  0  0  0  0  0  0  0  0
   -0.3259    3.6686   -0.8080 H   0  0  0  0  0  0  0  0  0  0  0  0
   -0.3934    3.3663    0.9660 H   0  0  0  0  0  0  0  0  0  0  0  0
   -0.8367   -0.9911   -0.9566 H   0  0  0  0  0  0  0  0  0  0  0  0
   -1.4800   -1.5425    0.6338 H   0  0  0  0  0  0  0  0  0  0  0  0
   -2.5710    3.0946    0.9725 H   0  0  0  0  0  0  0  0  0  0  0  0
   -2.7709    3.3501   -0.7731 H   0  0  0  0  0  0  0  0  0  0  0  0
    2.0794    3.3099   -0.2672 H   0  0  0  0  0  0  0  0  0  0  0  0
    2.2888    2.0594   -1.5478 H   0  0  0  0  0  0  0  0  0  0  0  0
   -0.2367    0.4654    2.5188 H   0  0  0  0  0  0  0  0  0  0  0  0
   -1.3816    1.8177    2.3882 H   0  0  0  0  0  0  0  0  0  0  0  0
   -1.9866    0.1395    2.4624 H   0  0  0  0  0  0  0  0  0  0  0  0
    3.8289    2.2636    1.1111 H   0  0  0  0  0  0  0  0  0  0  0  0
    4.4642    2.6884   -0.5052 H   0  0  0  0  0  0  0  0  0  0  0  0
    3.2200   -2.0583   -1.1225 H   0  0  0  0  0  0  0  0  0  0  0  0
    3.0617   -2.7386    0.5254 H   0  0  0  0  0  0  0  0  0  0  0  0
    4.4621   -0.6188    2.2870 H   0  0  0  0  0  0  0  0  0  0  0  0
    3.1162    0.5331    2.4272 H   0  0  0  0  0  0  0  0  0  0  0  0
    2.8039   -1.2187    2.5348 H   0  0  0  0  0  0  0  0  0  0  0  0
   -3.2168    1.3633   -1.9687 H   0  0  0  0  0  0  0  0  0  0  0  0
    5.3165   -3.2250   -0.4502 H   0  0  0  0  0  0  0  0  0  0  0  0
    5.4759   -2.0882    0.9290 H   0  0  0  0  0  0  0  0  0  0  0  0
    5.8411    1.0078   -1.3414 H   0  0  0  0  0  0  0  0  0  0  0  0
   -4.2978   -1.1518    1.3285 H   0  0  0  0  0  0  0  0  0  0  0  0
   -3.4851   -1.2967   -0.2838 H   0  0  0  0  0  0  0  0  0  0  0  0
   -7.3094   -1.3281   -2.2664 H   0  0  0  0  0  0  0  0  0  0  0  0
   -8.1413   -1.1919   -0.6652 H   0  0  0  0  0  0  0  0  0  0  0  0
   -7.8793   -2.8158   -1.4135 H   0  0  0  0  0  0  0  0  0  0  0  0
  1 51  1  0  0  0  0
  2 17  2  0  0  0  0
  3 22  2  0  0  0  0
  4 27  1  0  0  0  0
  4 28  1  0  0  0  0
  5 26  2  0  0  0  0
  6 28  2  0  0  0  0
  7  8  1  1  0  0  0
  7 13  1  0  0  0  0
  7 30  1  0  0  0  0
  8 11  1  6  0  0  0
  8 14  1  0  0  0  0
  8 18  1  0  0  0  0
  9  7  1  6  0  0  0
  9 16  1  0  0  0  0
  9 31  1  0  0  0  0
 10  9  1  1  0  0  0
 10 17  1  0  0  0  0
 10 32  1  0  0  0  0
 11  1  1  6  0  0  0
 11 15  1  0  0  0  0
 11 22  1  0  0  0  0
 12 10  1  6  0  0  0
 12 19  1  0  0  0  0
 12 21  1  0  0  0  0
 12 23  1  0  0  0  0
 13 15  1  0  0  0  0
 13 33  1  0  0  0  0
 13 34  1  0  0  0  0
 14 17  1  0  0  0  0
 14 35  1  0  0  0  0
 14 36  1  0  0  0  0
 15 37  1  0  0  0  0
 15 38  1  0  0  0  0
 16 20  1  0  0  0  0
 16 39  1  0  0  0  0
 16 40  1  0  0  0  0
 18 41  1  0  0  0  0
 18 42  1  0  0  0  0
 18 43  1  0  0  0  0
 19 20  1  0  0  0  0
 19 25  2  0  0  0  0
 20 44  1  0  0  0  0
 20 45  1  0  0  0  0
 21 24  1  0  0  0  0
 21 46  1  0  0  0  0
 21 47  1  0  0  0  0
 22 27  1  0  0  0  0
 23 48  1  0  0  0  0
 23 49  1  0  0  0  0
 23 50  1  0  0  0  0
 24 26  1  0  0  0  0
 24 52  1  0  0  0  0
 24 53  1  0  0  0  0
 25 26  1  0  0  0  0
 25 54  1  0  0  0  0
 27 55  1  0  0  0  0
 27 56  1  0  0  0  0
 28 29  1  0  0  0  0
 29 57  1  0  0  0  0
 29 58  1  0  0  0  0
 29 59  1  0  0  0  0
M  END
