
 OpenBabel11152118503D

 50 52  0  0  0  0  0  0  0  0999 V2000
    6.1847    1.8572   -0.5370 C   0  0  0  0  0  0  0  0  0  0  0  0
    6.8962    0.6935   -0.1510 C   0  0  0  0  0  0  0  0  0  0  0  0
    4.7960    1.9144   -0.5084 C   0  0  0  0  0  0  0  0  0  0  0  0
    4.0654    0.8141   -0.0954 C   0  0  0  0  0  0  0  0  0  0  0  0
    4.7193   -0.3468    0.3008 C   0  0  0  0  0  0  0  0  0  0  0  0
    6.1315   -0.4489    0.2972 C   0  0  0  0  0  0  0  0  0  0  0  0
    6.6766   -1.7581    0.7970 C   0  0  0  0  0  0  0  0  0  0  0  0
    8.3961    0.7780   -0.2833 C   0  0  0  0  0  0  0  0  0  0  0  0
    5.8149   -2.7789    1.0618 O   0  0  0  0  0  0  0  0  0  0  0  0
    7.8597   -1.9107    1.0385 O   0  0  0  0  0  0  0  0  0  0  0  0
    6.1690   -4.0478    1.4895 C   0  0  0  0  0  0  0  0  0  0  0  0
    9.1902   -0.3123   -0.1580 O   0  0  0  0  0  0  0  0  0  0  0  0
    8.9084    1.8524   -0.5716 O   0  0  0  0  0  0  0  0  0  0  0  0
   10.5679   -0.3537   -0.2963 C   0  0  0  0  0  0  0  0  0  0  0  0
   10.9307   -1.3140   -1.4419 C   0  0  0  0  0  0  0  0  0  0  0  0
   11.1944   -0.8448    1.0201 C   0  0  0  0  0  0  0  0  0  0  0  0
    6.9552   -4.8049    0.3944 C   0  0  0  0  0  0  0  0  0  0  0  0
    4.8884   -4.8269    1.8361 C   0  0  0  0  0  0  0  0  0  0  0  0
   12.4553   -1.4301   -1.5829 C   0  0  0  0  0  0  0  0  0  0  0  0
   13.0770   -1.9181   -0.2668 C   0  0  0  0  0  0  0  0  0  0  0  0
   12.7190   -0.9608    0.8787 C   0  0  0  0  0  0  0  0  0  0  0  0
    7.2950   -6.2267    0.8637 C   0  0  0  0  0  0  0  0  0  0  0  0
    6.0143   -6.9940    1.2174 C   0  0  0  0  0  0  0  0  0  0  0  0
    5.2304   -6.2482    2.3051 C   0  0  0  0  0  0  0  0  0  0  0  0
    6.7023    2.7437   -0.8818 H   0  0  0  0  0  0  0  0  0  0  0  0
    4.2843    2.8180   -0.8148 H   0  0  0  0  0  0  0  0  0  0  0  0
    2.9840    0.8605   -0.0760 H   0  0  0  0  0  0  0  0  0  0  0  0
    4.0961   -1.1701    0.6260 H   0  0  0  0  0  0  0  0  0  0  0  0
    6.7897   -3.9656    2.4109 H   0  0  0  0  0  0  0  0  0  0  0  0
   10.9847    0.6519   -0.5322 H   0  0  0  0  0  0  0  0  0  0  0  0
   10.5029   -2.3205   -1.2349 H   0  0  0  0  0  0  0  0  0  0  0  0
   10.4971   -0.9420   -2.3952 H   0  0  0  0  0  0  0  0  0  0  0  0
   10.9501   -0.1353    1.8399 H   0  0  0  0  0  0  0  0  0  0  0  0
   10.7745   -1.8406    1.2856 H   0  0  0  0  0  0  0  0  0  0  0  0
    6.3420   -4.8597   -0.5325 H   0  0  0  0  0  0  0  0  0  0  0  0
    7.8997   -4.2753    0.1506 H   0  0  0  0  0  0  0  0  0  0  0  0
    4.3335   -4.2972    2.6406 H   0  0  0  0  0  0  0  0  0  0  0  0
    4.2305   -4.8830    0.9402 H   0  0  0  0  0  0  0  0  0  0  0  0
   12.7026   -2.1413   -2.4000 H   0  0  0  0  0  0  0  0  0  0  0  0
   12.8796   -0.4362   -1.8468 H   0  0  0  0  0  0  0  0  0  0  0  0
   12.6944   -2.9360   -0.0318 H   0  0  0  0  0  0  0  0  0  0  0  0
   14.1813   -1.9780   -0.3737 H   0  0  0  0  0  0  0  0  0  0  0  0
   13.1557   -1.3350    1.8294 H   0  0  0  0  0  0  0  0  0  0  0  0
   13.1492    0.0437    0.6702 H   0  0  0  0  0  0  0  0  0  0  0  0
    7.8423   -6.7651    0.0605 H   0  0  0  0  0  0  0  0  0  0  0  0
    7.9544   -6.1728    1.7581 H   0  0  0  0  0  0  0  0  0  0  0  0
    5.3810   -7.0959    0.3085 H   0  0  0  0  0  0  0  0  0  0  0  0
    6.2748   -8.0131    1.5754 H   0  0  0  0  0  0  0  0  0  0  0  0
    4.2949   -6.8011    2.5367 H   0  0  0  0  0  0  0  0  0  0  0  0
    5.8418   -6.1951    3.2330 H   0  0  0  0  0  0  0  0  0  0  0  0
  1  2  1  0  0  0  0
  1  3  2  0  0  0  0
  1 25  1  0  0  0  0
  2  8  1  0  0  0  0
  2  6  2  0  0  0  0
  3 26  1  0  0  0  0
  4  3  1  0  0  0  0
  4 27  1  0  0  0  0
  5  4  2  0  0  0  0
  5 28  1  0  0  0  0
  6  7  1  0  0  0  0
  6  5  1  0  0  0  0
  7  9  1  0  0  0  0
  7 10  2  0  0  0  0
  8 12  1  0  0  0  0
  8 13  2  0  0  0  0
  9 11  1  0  0  0  0
 11 17  1  0  0  0  0
 11 18  1  0  0  0  0
 11 29  1  0  0  0  0
 12 14  1  0  0  0  0
 14 15  1  0  0  0  0
 14 16  1  0  0  0  0
 14 30  1  0  0  0  0
 15 19  1  0  0  0  0
 15 31  1  0  0  0  0
 15 32  1  0  0  0  0
 16 33  1  0  0  0  0
 16 34  1  0  0  0  0
 17 22  1  0  0  0  0
 17 35  1  0  0  0  0
 17 36  1  0  0  0  0
 18 37  1  0  0  0  0
 18 38  1  0  0  0  0
 19 20  1  0  0  0  0
 19 39  1  0  0  0  0
 19 40  1  0  0  0  0
 20 21  1  0  0  0  0
 20 41  1  0  0  0  0
 20 42  1  0  0  0  0
 21 16  1  0  0  0  0
 21 43  1  0  0  0  0
 21 44  1  0  0  0  0
 22 23  1  0  0  0  0
 22 45  1  0  0  0  0
 22 46  1  0  0  0  0
 23 24  1  0  0  0  0
 23 47  1  0  0  0  0
 23 48  1  0  0  0  0
 24 18  1  0  0  0  0
 24 49  1  0  0  0  0
 24 50  1  0  0  0  0
M  END
