
 OpenBabel05252300083D

 52 51  0  0  0  0  0  0  0  0999 V2000
   -0.0005    0.2891   -0.0409 N   0  0  0  0  0  0  0  0  0  0  0  0
   -3.7373   -0.4976   -0.0153 C   0  0  0  0  0  0  0  0  0  0  0  0
    3.7371   -0.4967    0.0231 C   0  0  0  0  0  0  0  0  0  0  0  0
   -4.9814    0.3983    0.0175 C   0  0  0  0  0  0  0  0  0  0  0  0
    4.9817    0.3985   -0.0076 C   0  0  0  0  0  0  0  0  0  0  0  0
   -2.4558    0.3443   -0.0054 C   0  0  0  0  0  0  0  0  0  0  0  0
    2.4562    0.3450   -0.0209 C   0  0  0  0  0  0  0  0  0  0  0  0
   -1.2081   -0.5438   -0.0361 C   0  0  0  0  0  0  0  0  0  0  0  0
    1.2076   -0.5427   -0.0123 C   0  0  0  0  0  0  0  0  0  0  0  0
   -6.2656   -0.4388   -0.0121 C   0  0  0  0  0  0  0  0  0  0  0  0
    6.2656   -0.4384    0.0396 C   0  0  0  0  0  0  0  0  0  0  0  0
   -7.5076    0.4596    0.0281 C   0  0  0  0  0  0  0  0  0  0  0  0
    7.5078    0.4593   -0.0079 C   0  0  0  0  0  0  0  0  0  0  0  0
   -8.7925   -0.3755   -0.0086 C   0  0  0  0  0  0  0  0  0  0  0  0
    8.7926   -0.3755    0.0439 C   0  0  0  0  0  0  0  0  0  0  0  0
  -10.0301    0.5162    0.0391 C   0  0  0  0  0  0  0  0  0  0  0  0
   10.0304    0.5153   -0.0114 C   0  0  0  0  0  0  0  0  0  0  0  0
   -3.7451   -1.1697    0.8712 H   0  0  0  0  0  0  0  0  0  0  0  0
   -3.7574   -1.1203   -0.9369 H   0  0  0  0  0  0  0  0  0  0  0  0
    3.7577   -1.1804   -0.8543 H   0  0  0  0  0  0  0  0  0  0  0  0
    3.7435   -1.1073    0.9530 H   0  0  0  0  0  0  0  0  0  0  0  0
   -4.9642    1.0143    0.9437 H   0  0  0  0  0  0  0  0  0  0  0  0
   -4.9686    1.0771   -0.8638 H   0  0  0  0  0  0  0  0  0  0  0  0
    4.9727    1.0033   -0.9414 H   0  0  0  0  0  0  0  0  0  0  0  0
    4.9614    1.0879    0.8652 H   0  0  0  0  0  0  0  0  0  0  0  0
   -2.4299    0.9733    0.9117 H   0  0  0  0  0  0  0  0  0  0  0  0
   -2.4517    1.0111   -0.8958 H   0  0  0  0  0  0  0  0  0  0  0  0
    2.4555    0.9634   -0.9456 H   0  0  0  0  0  0  0  0  0  0  0  0
    2.4280    1.0219    0.8614 H   0  0  0  0  0  0  0  0  0  0  0  0
   -1.2121   -1.1971    0.8652 H   0  0  0  0  0  0  0  0  0  0  0  0
   -1.2314   -1.1845   -0.9470 H   0  0  0  0  0  0  0  0  0  0  0  0
    1.2297   -1.2168   -0.8989 H   0  0  0  0  0  0  0  0  0  0  0  0
    1.2123   -1.1617    0.9128 H   0  0  0  0  0  0  0  0  0  0  0  0
   -6.2795   -1.1228    0.8651 H   0  0  0  0  0  0  0  0  0  0  0  0
   -6.2834   -1.0490   -0.9422 H   0  0  0  0  0  0  0  0  0  0  0  0
    6.2836   -1.1334   -0.8289 H   0  0  0  0  0  0  0  0  0  0  0  0
    6.2786   -1.0368    0.9773 H   0  0  0  0  0  0  0  0  0  0  0  0
    0.0052    0.8613   -0.9189 H   0  0  0  0  0  0  0  0  0  0  0  0
   -7.4928    1.1474   -0.8463 H   0  0  0  0  0  0  0  0  0  0  0  0
   -7.4903    1.0661    0.9607 H   0  0  0  0  0  0  0  0  0  0  0  0
    7.4900    1.1586    0.8572 H   0  0  0  0  0  0  0  0  0  0  0  0
    7.4941    1.0533   -0.9485 H   0  0  0  0  0  0  0  0  0  0  0  0
   -8.8150   -1.0663    0.8624 H   0  0  0  0  0  0  0  0  0  0  0  0
   -8.8198   -0.9780   -0.9429 H   0  0  0  0  0  0  0  0  0  0  0  0
    8.8179   -1.0775   -0.8180 H   0  0  0  0  0  0  0  0  0  0  0  0
    8.8166   -0.9658    0.9860 H   0  0  0  0  0  0  0  0  0  0  0  0
  -10.0446    1.2045   -0.8328 H   0  0  0  0  0  0  0  0  0  0  0  0
  -10.0393    1.1134    0.9759 H   0  0  0  0  0  0  0  0  0  0  0  0
  -10.9441   -0.1137    0.0103 H   0  0  0  0  0  0  0  0  0  0  0  0
   10.0418    1.2153    0.8512 H   0  0  0  0  0  0  0  0  0  0  0  0
   10.0430    1.1000   -0.9561 H   0  0  0  0  0  0  0  0  0  0  0  0
   10.9442   -0.1141    0.0291 H   0  0  0  0  0  0  0  0  0  0  0  0
  1  8  1  0  0  0  0
  1  9  1  0  0  0  0
  1 38  1  0  0  0  0
  2  4  1  0  0  0  0
  2  6  1  0  0  0  0
  2 18  1  0  0  0  0
  2 19  1  0  0  0  0
  3  5  1  0  0  0  0
  3  7  1  0  0  0  0
  3 20  1  0  0  0  0
  3 21  1  0  0  0  0
  4 10  1  0  0  0  0
  4 22  1  0  0  0  0
  4 23  1  0  0  0  0
  5 11  1  0  0  0  0
  5 24  1  0  0  0  0
  5 25  1  0  0  0  0
  6  8  1  0  0  0  0
  6 26  1  0  0  0  0
  6 27  1  0  0  0  0
  7  9  1  0  0  0  0
  7 28  1  0  0  0  0
  7 29  1  0  0  0  0
  8 30  1  0  0  0  0
  8 31  1  0  0  0  0
  9 32  1  0  0  0  0
  9 33  1  0  0  0  0
 10 12  1  0  0  0  0
 10 34  1  0  0  0  0
 10 35  1  0  0  0  0
 11 13  1  0  0  0  0
 11 36  1  0  0  0  0
 11 37  1  0  0  0  0
 12 14  1  0  0  0  0
 12 39  1  0  0  0  0
 12 40  1  0  0  0  0
 13 15  1  0  0  0  0
 13 41  1  0  0  0  0
 13 42  1  0  0  0  0
 14 16  1  0  0  0  0
 14 43  1  0  0  0  0
 14 44  1  0  0  0  0
 15 17  1  0  0  0  0
 15 45  1  0  0  0  0
 15 46  1  0  0  0  0
 16 47  1  0  0  0  0
 16 48  1  0  0  0  0
 16 49  1  0  0  0  0
 17 50  1  0  0  0  0
 17 51  1  0  0  0  0
 17 52  1  0  0  0  0
M  END
