
 OpenBabel10232220183D

 45 48  0  0  1  0  0  0  0  0999 V2000
   -4.7478    1.5209   -0.2024 O   0  0  0  0  0  0  0  0  0  0  0  0
   -5.0174   -1.4827    0.8322 O   0  0  0  0  0  0  0  0  0  0  0  0
    6.1071    0.0058   -0.2884 O   0  0  0  0  0  0  0  0  0  0  0  0
   -2.3968    0.7756   -0.2426 C   0  0  1  0  0  0  0  0  0  0  0  0
   -1.7857   -0.5539    0.2522 C   0  0  2  0  0  0  0  0  0  0  0  0
   -0.3010   -0.6808   -0.1419 C   0  0  1  0  0  0  0  0  0  0  0  0
    0.4844    0.4840    0.5523 C   0  0  2  0  0  0  0  0  0  0  0  0
   -3.8271    0.5842    0.2895 C   0  0  2  0  0  0  0  0  0  0  0  0
   -1.6164    1.9445    0.4020 C   0  0  0  0  0  0  0  0  0  0  0  0
   -2.7868   -1.6019   -0.2362 C   0  0  0  0  0  0  0  0  0  0  0  0
   -4.1587   -0.8808   -0.1022 C   0  0  1  0  0  0  0  0  0  0  0  0
   -0.1029    1.8493    0.0793 C   0  0  0  0  0  0  0  0  0  0  0  0
    0.3174   -2.0121    0.2640 C   0  0  0  0  0  0  0  0  0  0  0  0
   -2.4174    0.9580   -1.7984 C   0  0  0  0  0  0  0  0  0  0  0  0
    1.9950    0.3467    0.3473 C   0  0  0  0  0  0  0  0  0  0  0  0
    1.7258   -2.1140   -0.3354 C   0  0  0  0  0  0  0  0  0  0  0  0
    2.5620   -0.8766   -0.1024 C   0  0  0  0  0  0  0  0  0  0  0  0
    2.8613    1.4237    0.6292 C   0  0  0  0  0  0  0  0  0  0  0  0
    3.9449   -0.9658   -0.3275 C   0  0  0  0  0  0  0  0  0  0  0  0
    4.2365    1.3128    0.4163 C   0  0  0  0  0  0  0  0  0  0  0  0
    4.7810    0.1220   -0.0729 C   0  0  0  0  0  0  0  0  0  0  0  0
   -1.8347   -0.5831    1.3693 H   0  0  0  0  0  0  0  0  0  0  0  0
   -0.2165   -0.6134   -1.2481 H   0  0  0  0  0  0  0  0  0  0  0  0
    0.3298    0.4398    1.6543 H   0  0  0  0  0  0  0  0  0  0  0  0
   -3.7675    0.6560    1.4034 H   0  0  0  0  0  0  0  0  0  0  0  0
   -1.7225    1.8927    1.5087 H   0  0  0  0  0  0  0  0  0  0  0  0
   -2.0302    2.9224    0.0735 H   0  0  0  0  0  0  0  0  0  0  0  0
   -2.5917   -1.7804   -1.3159 H   0  0  0  0  0  0  0  0  0  0  0  0
   -2.7151   -2.5854    0.2755 H   0  0  0  0  0  0  0  0  0  0  0  0
   -4.6426   -0.9252   -1.1028 H   0  0  0  0  0  0  0  0  0  0  0  0
    0.0864    1.9851   -1.0044 H   0  0  0  0  0  0  0  0  0  0  0  0
    0.3844    2.6947    0.6035 H   0  0  0  0  0  0  0  0  0  0  0  0
   -0.2753   -2.8755   -0.1066 H   0  0  0  0  0  0  0  0  0  0  0  0
    0.3584   -2.0672    1.3749 H   0  0  0  0  0  0  0  0  0  0  0  0
   -1.4087    0.9823   -2.2489 H   0  0  0  0  0  0  0  0  0  0  0  0
   -2.9787    0.1651   -2.3284 H   0  0  0  0  0  0  0  0  0  0  0  0
   -2.9103    1.9199   -2.0543 H   0  0  0  0  0  0  0  0  0  0  0  0
    1.6791   -2.2858   -1.4329 H   0  0  0  0  0  0  0  0  0  0  0  0
    2.2068   -3.0000    0.1338 H   0  0  0  0  0  0  0  0  0  0  0  0
   -5.5929    1.3677    0.2946 H   0  0  0  0  0  0  0  0  0  0  0  0
   -4.5114   -1.5832    1.6805 H   0  0  0  0  0  0  0  0  0  0  0  0
    2.4883    2.3642    1.0048 H   0  0  0  0  0  0  0  0  0  0  0  0
    4.3777   -1.8934   -0.6837 H   0  0  0  0  0  0  0  0  0  0  0  0
    4.8784    2.1585    0.6291 H   0  0  0  0  0  0  0  0  0  0  0  0
    6.7220    0.7340   -0.1200 H   0  0  0  0  0  0  0  0  0  0  0  0
  1  8  1  0  0  0  0
  1 40  1  0  0  0  0
  2 11  1  0  0  0  0
  2 41  1  0  0  0  0
  3 21  1  0  0  0  0
  3 45  1  0  0  0  0
  4  5  1  1  0  0  0
  4  9  1  0  0  0  0
  4 14  1  0  0  0  0
  5  6  1  6  0  0  0
  5 10  1  0  0  0  0
  5 22  1  0  0  0  0
  6  7  1  1  0  0  0
  6 13  1  0  0  0  0
  6 23  1  0  0  0  0
  7 12  1  0  0  0  0
  7 15  1  0  0  0  0
  7 24  1  1  0  0  0
  8  4  1  6  0  0  0
  8 25  1  0  0  0  0
  9 12  1  0  0  0  0
  9 26  1  0  0  0  0
  9 27  1  0  0  0  0
 10 11  1  0  0  0  0
 10 28  1  0  0  0  0
 10 29  1  0  0  0  0
 11  8  1  1  0  0  0
 11 30  1  0  0  0  0
 12 31  1  0  0  0  0
 12 32  1  0  0  0  0
 13 16  1  0  0  0  0
 13 33  1  0  0  0  0
 13 34  1  0  0  0  0
 14 35  1  0  0  0  0
 14 36  1  0  0  0  0
 14 37  1  0  0  0  0
 15 17  2  0  0  0  0
 15 18  1  0  0  0  0
 16 17  1  0  0  0  0
 16 38  1  0  0  0  0
 16 39  1  0  0  0  0
 17 19  1  0  0  0  0
 18 20  2  0  0  0  0
 18 42  1  0  0  0  0
 19 21  2  0  0  0  0
 19 43  1  0  0  0  0
 20 21  1  0  0  0  0
 20 44  1  0  0  0  0
M  END
