
 OpenBabel11152119073D

 50 52  0  0  0  0  0  0  0  0999 V2000
    0.2074   -0.7857   -0.9519 O   0  0  0  0  0  0  0  0  0  0  0  0
    1.9288    1.3627   -0.8082 O   0  0  0  0  0  0  0  0  0  0  0  0
   -2.1807    0.6683   -1.1902 O   0  0  0  0  0  0  0  0  0  0  0  0
   -0.2459   -2.4568   -2.3779 O   0  0  0  0  0  0  0  0  0  0  0  0
    2.2109    3.4051    0.0675 O   0  0  0  0  0  0  0  0  0  0  0  0
   -4.0971    0.8717   -2.3317 O   0  0  0  0  0  0  0  0  0  0  0  0
    0.0876    0.2667   -1.8455 C   0  0  0  0  0  0  0  0  0  0  0  0
    0.6100    1.5424   -1.1747 C   0  0  0  0  0  0  0  0  0  0  0  0
   -1.3750    0.4501   -2.2903 C   0  0  0  0  0  0  0  0  0  0  0  0
   -0.0014   -2.0994   -1.2334 C   0  0  0  0  0  0  0  0  0  0  0  0
    0.0894   -3.1033   -0.1455 C   0  0  0  0  0  0  0  0  0  0  0  0
    2.6849    2.3063   -0.1902 C   0  0  0  0  0  0  0  0  0  0  0  0
   -3.5220    0.8686   -1.2511 C   0  0  0  0  0  0  0  0  0  0  0  0
    4.0895    1.9981    0.1741 C   0  0  0  0  0  0  0  0  0  0  0  0
   -4.2880    1.0827    0.0007 C   0  0  0  0  0  0  0  0  0  0  0  0
   -0.1125   -4.4717   -0.4087 C   0  0  0  0  0  0  0  0  0  0  0  0
    0.3793   -2.6987    1.1710 C   0  0  0  0  0  0  0  0  0  0  0  0
    4.8953    2.9594    0.8140 C   0  0  0  0  0  0  0  0  0  0  0  0
   -5.6797    1.2938   -0.0330 C   0  0  0  0  0  0  0  0  0  0  0  0
    4.6374    0.7345   -0.1157 C   0  0  0  0  0  0  0  0  0  0  0  0
   -3.6300    1.0770    1.2450 C   0  0  0  0  0  0  0  0  0  0  0  0
   -0.0254   -5.4112    0.6234 C   0  0  0  0  0  0  0  0  0  0  0  0
    0.4652   -3.6427    2.1990 C   0  0  0  0  0  0  0  0  0  0  0  0
    0.2631   -4.9973    1.9258 C   0  0  0  0  0  0  0  0  0  0  0  0
    6.2183    2.6604    1.1545 C   0  0  0  0  0  0  0  0  0  0  0  0
   -6.3939    1.4944    1.1525 C   0  0  0  0  0  0  0  0  0  0  0  0
    5.9610    0.4412    0.2272 C   0  0  0  0  0  0  0  0  0  0  0  0
   -4.3494    1.2780    2.4271 C   0  0  0  0  0  0  0  0  0  0  0  0
    6.7506    1.4029    0.8615 C   0  0  0  0  0  0  0  0  0  0  0  0
   -5.7296    1.4866    2.3811 C   0  0  0  0  0  0  0  0  0  0  0  0
    0.7198    0.0694   -2.7405 H   0  0  0  0  0  0  0  0  0  0  0  0
    0.0036    1.7719   -0.2701 H   0  0  0  0  0  0  0  0  0  0  0  0
    0.5366    2.3943   -1.8866 H   0  0  0  0  0  0  0  0  0  0  0  0
   -1.7254   -0.4554   -2.8293 H   0  0  0  0  0  0  0  0  0  0  0  0
   -1.4450    1.3133   -2.9887 H   0  0  0  0  0  0  0  0  0  0  0  0
   -0.3375   -4.8162   -1.4103 H   0  0  0  0  0  0  0  0  0  0  0  0
    0.5398   -1.6543    1.4081 H   0  0  0  0  0  0  0  0  0  0  0  0
    4.5045    3.9410    1.0514 H   0  0  0  0  0  0  0  0  0  0  0  0
   -6.2161    1.3041   -0.9736 H   0  0  0  0  0  0  0  0  0  0  0  0
    4.0452   -0.0277   -0.6066 H   0  0  0  0  0  0  0  0  0  0  0  0
   -2.5606    0.9172    1.3065 H   0  0  0  0  0  0  0  0  0  0  0  0
   -0.1819   -6.4613    0.4129 H   0  0  0  0  0  0  0  0  0  0  0  0
    0.6886   -3.3232    3.2088 H   0  0  0  0  0  0  0  0  0  0  0  0
    0.3300   -5.7262    2.7231 H   0  0  0  0  0  0  0  0  0  0  0  0
    6.8312    3.4048    1.6462 H   0  0  0  0  0  0  0  0  0  0  0  0
   -7.4636    1.6561    1.1182 H   0  0  0  0  0  0  0  0  0  0  0  0
    6.3746   -0.5331    0.0009 H   0  0  0  0  0  0  0  0  0  0  0  0
   -3.8358    1.2720    3.3798 H   0  0  0  0  0  0  0  0  0  0  0  0
    7.7748    1.1736    1.1260 H   0  0  0  0  0  0  0  0  0  0  0  0
   -6.2844    1.6420    3.2974 H   0  0  0  0  0  0  0  0  0  0  0  0
  1  7  1  0  0  0  0
  1 10  1  0  0  0  0
  2  8  1  0  0  0  0
  2 12  1  0  0  0  0
  3  9  1  0  0  0  0
  3 13  1  0  0  0  0
  4 10  2  0  0  0  0
  5 12  2  0  0  0  0
  6 13  2  0  0  0  0
  7  8  1  0  0  0  0
  7  9  1  0  0  0  0
  7 31  1  0  0  0  0
  8 32  1  0  0  0  0
  8 33  1  0  0  0  0
  9 34  1  0  0  0  0
  9 35  1  0  0  0  0
 10 11  1  0  0  0  0
 11 16  2  0  0  0  0
 11 17  1  0  0  0  0
 12 14  1  0  0  0  0
 13 15  1  0  0  0  0
 14 18  2  0  0  0  0
 14 20  1  0  0  0  0
 15 19  2  0  0  0  0
 15 21  1  0  0  0  0
 16 22  1  0  0  0  0
 16 36  1  0  0  0  0
 17 23  2  0  0  0  0
 17 37  1  0  0  0  0
 18 25  1  0  0  0  0
 18 38  1  0  0  0  0
 19 26  1  0  0  0  0
 19 39  1  0  0  0  0
 20 27  2  0  0  0  0
 20 40  1  0  0  0  0
 21 28  2  0  0  0  0
 21 41  1  0  0  0  0
 22 24  2  0  0  0  0
 22 42  1  0  0  0  0
 23 24  1  0  0  0  0
 23 43  1  0  0  0  0
 24 44  1  0  0  0  0
 25 29  2  0  0  0  0
 25 45  1  0  0  0  0
 26 30  2  0  0  0  0
 26 46  1  0  0  0  0
 27 29  1  0  0  0  0
 27 47  1  0  0  0  0
 28 30  1  0  0  0  0
 28 48  1  0  0  0  0
 29 49  1  0  0  0  0
 30 50  1  0  0  0  0
M  END
