
 OpenBabel11042216163D

 54 57  0  0  1  0  0  0  0  0999 V2000
   -2.9516    0.0413   -1.0661 O   0  0  0  0  0  0  0  0  0  0  0  0
   -4.0307   -1.2147    1.7782 O   0  0  0  0  0  0  0  0  0  0  0  0
    6.1470   -0.4341   -1.9502 O   0  0  0  0  0  0  0  0  0  0  0  0
   -1.5882    0.1090    0.9357 C   0  0  1  0  0  0  0  0  0  0  0  0
   -0.7923    1.2127    0.2116 C   0  0  2  0  0  0  0  0  0  0  0  0
    0.7025    1.2598    0.6042 C   0  0  1  0  0  0  0  0  0  0  0  0
    1.3462   -0.1382    0.2850 C   0  0  1  0  0  0  0  0  0  0  0  0
   -3.0047    0.3751    0.3084 C   0  0  1  0  0  0  0  0  0  0  0  0
    2.8957   -0.1738    0.5991 C   0  0  2  0  0  0  0  0  0  0  0  0
   -0.9558   -1.2587    0.5696 C   0  0  0  0  0  0  0  0  0  0  0  0
    0.5422   -1.3031    0.9493 C   0  0  0  0  0  0  0  0  0  0  0  0
   -1.6556    2.4642    0.3995 C   0  0  0  0  0  0  0  0  0  0  0  0
   -3.1076    1.9230    0.4586 C   0  0  0  0  0  0  0  0  0  0  0  0
    1.4329    2.3689   -0.1850 C   0  0  0  0  0  0  0  0  0  0  0  0
   -1.5844    0.2923    2.4993 C   0  0  0  0  0  0  0  0  0  0  0  0
    3.5412    1.0636   -0.0617 C   0  0  0  0  0  0  0  0  0  0  0  0
    2.9096    2.4132    0.1956 C   0  0  0  0  0  0  0  0  0  0  0  0
    3.4843   -1.5045    0.0017 C   0  0  0  0  0  0  0  0  0  0  0  0
    3.1823   -0.1056    2.1221 C   0  0  0  0  0  0  0  0  0  0  0  0
   -4.1923   -0.3696    0.9124 C   0  0  0  0  0  0  0  0  0  0  0  0
    4.9991   -1.4493   -0.1441 C   0  0  0  0  0  0  0  0  0  0  0  0
    4.6311    0.9788   -0.8581 C   0  0  0  0  0  0  0  0  0  0  0  0
    5.3220   -0.3070   -1.0591 C   0  0  0  0  0  0  0  0  0  0  0  0
   -5.5905   -0.0937    0.4347 C   0  0  0  0  0  0  0  0  0  0  0  0
   -0.8125    0.9946   -0.8831 H   0  0  0  0  0  0  0  0  0  0  0  0
    0.7868    1.4916    1.6844 H   0  0  0  0  0  0  0  0  0  0  0  0
    1.2381   -0.2728   -0.8167 H   0  0  0  0  0  0  0  0  0  0  0  0
   -1.0182   -1.4223   -0.5284 H   0  0  0  0  0  0  0  0  0  0  0  0
   -1.5049   -2.0895    1.0621 H   0  0  0  0  0  0  0  0  0  0  0  0
    0.6445   -1.2684    2.0489 H   0  0  0  0  0  0  0  0  0  0  0  0
    0.9379   -2.2851    0.6201 H   0  0  0  0  0  0  0  0  0  0  0  0
   -1.4815    3.2166   -0.3990 H   0  0  0  0  0  0  0  0  0  0  0  0
   -1.4226    2.9347    1.3801 H   0  0  0  0  0  0  0  0  0  0  0  0
   -3.5037    2.1679    1.4684 H   0  0  0  0  0  0  0  0  0  0  0  0
   -3.8037    2.4039   -0.2614 H   0  0  0  0  0  0  0  0  0  0  0  0
    0.9810    3.3590    0.0391 H   0  0  0  0  0  0  0  0  0  0  0  0
    1.3417    2.1832   -1.2786 H   0  0  0  0  0  0  0  0  0  0  0  0
   -2.1362   -0.5213    3.0057 H   0  0  0  0  0  0  0  0  0  0  0  0
   -0.5704    0.2745    2.9359 H   0  0  0  0  0  0  0  0  0  0  0  0
   -2.0288    1.2469    2.8356 H   0  0  0  0  0  0  0  0  0  0  0  0
    2.9972    2.6610    1.2742 H   0  0  0  0  0  0  0  0  0  0  0  0
    3.4165    3.2249   -0.3710 H   0  0  0  0  0  0  0  0  0  0  0  0
    3.0818   -1.6707   -1.0236 H   0  0  0  0  0  0  0  0  0  0  0  0
    3.1940   -2.3796    0.6208 H   0  0  0  0  0  0  0  0  0  0  0  0
    2.7896   -1.0000    2.6466 H   0  0  0  0  0  0  0  0  0  0  0  0
    4.2722   -0.0612    2.3218 H   0  0  0  0  0  0  0  0  0  0  0  0
    2.7338    0.7892    2.5953 H   0  0  0  0  0  0  0  0  0  0  0  0
   -3.6793    0.5173   -1.5445 H   0  0  0  0  0  0  0  0  0  0  0  0
    5.4149   -2.4008   -0.5410 H   0  0  0  0  0  0  0  0  0  0  0  0
    5.4546   -1.2683    0.8501 H   0  0  0  0  0  0  0  0  0  0  0  0
    5.0241    1.8619   -1.3545 H   0  0  0  0  0  0  0  0  0  0  0  0
   -5.8451    0.9723    0.6084 H   0  0  0  0  0  0  0  0  0  0  0  0
   -5.6797   -0.3206   -0.6473 H   0  0  0  0  0  0  0  0  0  0  0  0
   -6.3234   -0.7238    0.9826 H   0  0  0  0  0  0  0  0  0  0  0  0
  1  8  1  0  0  0  0
  1 48  1  0  0  0  0
  2 20  2  0  0  0  0
  3 23  2  0  0  0  0
  4  5  1  6  0  0  0
  4 10  1  0  0  0  0
  4 15  1  0  0  0  0
  5  6  1  1  0  0  0
  5 12  1  0  0  0  0
  5 25  1  0  0  0  0
  6  7  1  6  0  0  0
  6 14  1  0  0  0  0
  6 26  1  0  0  0  0
  7  9  1  1  0  0  0
  7 11  1  0  0  0  0
  7 27  1  0  0  0  0
  8  4  1  1  0  0  0
  8 13  1  0  0  0  0
  8 20  1  0  0  0  0
  9 16  1  0  0  0  0
  9 18  1  0  0  0  0
  9 19  1  1  0  0  0
 10 11  1  0  0  0  0
 10 28  1  0  0  0  0
 10 29  1  0  0  0  0
 11 30  1  0  0  0  0
 11 31  1  0  0  0  0
 12 13  1  0  0  0  0
 12 32  1  0  0  0  0
 12 33  1  0  0  0  0
 13 34  1  0  0  0  0
 13 35  1  0  0  0  0
 14 17  1  0  0  0  0
 14 36  1  0  0  0  0
 14 37  1  0  0  0  0
 15 38  1  0  0  0  0
 15 39  1  0  0  0  0
 15 40  1  0  0  0  0
 16 17  1  0  0  0  0
 16 22  2  0  0  0  0
 17 41  1  0  0  0  0
 17 42  1  0  0  0  0
 18 21  1  0  0  0  0
 18 43  1  0  0  0  0
 18 44  1  0  0  0  0
 19 45  1  0  0  0  0
 19 46  1  0  0  0  0
 19 47  1  0  0  0  0
 20 24  1  0  0  0  0
 21 23  1  0  0  0  0
 21 49  1  0  0  0  0
 21 50  1  0  0  0  0
 22 23  1  0  0  0  0
 22 51  1  0  0  0  0
 24 52  1  0  0  0  0
 24 53  1  0  0  0  0
 24 54  1  0  0  0  0
M  END
