
 OpenBabel09152118013D

 62 65  0  0  1  0  0  0  0  0999 V2000
   -3.1073    0.0940    1.1377 O   0  0  0  0  0  0  0  0  0  0  0  0
   -5.2024    0.1952   -1.4200 O   0  0  0  0  0  0  0  0  0  0  0  0
    6.0474    0.5834    2.1022 O   0  0  0  0  0  0  0  0  0  0  0  0
   -5.1690   -0.6766    1.6192 O   0  0  0  0  0  0  0  0  0  0  0  0
   -1.7161    0.3946   -0.7923 C   0  0  1  0  0  0  0  0  0  0  0  0
   -0.8878   -0.8122   -0.2949 C   0  0  2  0  0  0  0  0  0  0  0  0
    0.6049   -0.7514   -0.7014 C   0  0  1  0  0  0  0  0  0  0  0  0
    1.2328    0.5565   -0.1129 C   0  0  1  0  0  0  0  0  0  0  0  0
   -3.1276   -0.0223   -0.2527 C   0  0  1  0  0  0  0  0  0  0  0  0
    2.7779    0.6816   -0.4274 C   0  0  2  0  0  0  0  0  0  0  0  0
   -1.0889    1.6692   -0.1576 C   0  0  0  0  0  0  0  0  0  0  0  0
    0.4031    1.8119   -0.5295 C   0  0  0  0  0  0  0  0  0  0  0  0
   -1.7084   -2.0195   -0.7356 C   0  0  0  0  0  0  0  0  0  0  0  0
    1.3583   -1.9864   -0.1641 C   0  0  0  0  0  0  0  0  0  0  0  0
   -3.1737   -1.5412   -0.6348 C   0  0  0  0  0  0  0  0  0  0  0  0
    2.8404   -1.9425   -0.5564 C   0  0  1  0  0  0  0  0  0  0  0  0
    3.4657   -0.6476   -0.0199 C   0  0  0  0  0  0  0  0  0  0  0  0
   -1.7508    0.5389   -2.3520 C   0  0  0  0  0  0  0  0  0  0  0  0
    3.3361    1.8967    0.4027 C   0  0  0  0  0  0  0  0  0  0  0  0
    3.0469    0.9163   -1.9381 C   0  0  0  0  0  0  0  0  0  0  0  0
   -4.3235    0.7713   -0.7949 C   0  0  0  0  0  0  0  0  0  0  0  0
    4.8509    1.8685    0.5186 C   0  0  0  0  0  0  0  0  0  0  0  0
    4.5684   -0.6583    0.7774 C   0  0  0  0  0  0  0  0  0  0  0  0
    3.5314   -3.2437   -0.1115 C   0  0  0  0  0  0  0  0  0  0  0  0
    5.2175    0.5925    1.2066 C   0  0  0  0  0  0  0  0  0  0  0  0
   -4.4887    2.2421   -0.5396 C   0  0  0  0  0  0  0  0  0  0  0  0
   -4.0964   -0.2395    2.0113 C   0  0  0  0  0  0  0  0  0  0  0  0
   -3.8603   -0.0558    3.4751 C   0  0  0  0  0  0  0  0  0  0  0  0
   -0.9136   -0.8183    0.8217 H   0  0  0  0  0  0  0  0  0  0  0  0
    0.6761   -0.7529   -1.8078 H   0  0  0  0  0  0  0  0  0  0  0  0
    1.1349    0.4673    0.9945 H   0  0  0  0  0  0  0  0  0  0  0  0
   -1.1455    1.6065    0.9512 H   0  0  0  0  0  0  0  0  0  0  0  0
   -1.6210    2.5874   -0.4641 H   0  0  0  0  0  0  0  0  0  0  0  0
    0.4943    1.9958   -1.6154 H   0  0  0  0  0  0  0  0  0  0  0  0
    0.7829    2.7168   -0.0141 H   0  0  0  0  0  0  0  0  0  0  0  0
   -1.4901   -2.9466   -0.1643 H   0  0  0  0  0  0  0  0  0  0  0  0
   -1.4808   -2.2205   -1.8059 H   0  0  0  0  0  0  0  0  0  0  0  0
    0.9022   -2.9053   -0.5922 H   0  0  0  0  0  0  0  0  0  0  0  0
    1.2679   -2.0348    0.9446 H   0  0  0  0  0  0  0  0  0  0  0  0
   -3.6072   -1.6903   -1.6482 H   0  0  0  0  0  0  0  0  0  0  0  0
   -3.7935   -2.1467    0.0581 H   0  0  0  0  0  0  0  0  0  0  0  0
    2.9034   -1.9238   -1.6650 H   0  0  0  0  0  0  0  0  0  0  0  0
   -2.1897   -0.3396   -2.8620 H   0  0  0  0  0  0  0  0  0  0  0  0
   -2.3664    1.4170   -2.6372 H   0  0  0  0  0  0  0  0  0  0  0  0
   -0.7514    0.6838   -2.8002 H   0  0  0  0  0  0  0  0  0  0  0  0
    2.9441    1.8578    1.4449 H   0  0  0  0  0  0  0  0  0  0  0  0
    3.0134    2.8624   -0.0403 H   0  0  0  0  0  0  0  0  0  0  0  0
    2.6096    0.1244   -2.5755 H   0  0  0  0  0  0  0  0  0  0  0  0
    2.6312    1.8868   -2.2762 H   0  0  0  0  0  0  0  0  0  0  0  0
    4.1347    0.9342   -2.1518 H   0  0  0  0  0  0  0  0  0  0  0  0
    5.2428    2.7446    1.0796 H   0  0  0  0  0  0  0  0  0  0  0  0
    5.2972    1.8870   -0.4958 H   0  0  0  0  0  0  0  0  0  0  0  0
    5.0235   -1.5804    1.1167 H   0  0  0  0  0  0  0  0  0  0  0  0
    3.4871   -3.3593    0.9929 H   0  0  0  0  0  0  0  0  0  0  0  0
    3.0289   -4.1205   -0.5732 H   0  0  0  0  0  0  0  0  0  0  0  0
    4.5905   -3.2531   -0.4463 H   0  0  0  0  0  0  0  0  0  0  0  0
   -4.4875    2.4398    0.5523 H   0  0  0  0  0  0  0  0  0  0  0  0
   -3.6861    2.8202   -1.0295 H   0  0  0  0  0  0  0  0  0  0  0  0
   -5.4515    2.6027   -0.9611 H   0  0  0  0  0  0  0  0  0  0  0  0
   -3.6455    1.0130    3.6831 H   0  0  0  0  0  0  0  0  0  0  0  0
   -2.9913   -0.6708    3.7889 H   0  0  0  0  0  0  0  0  0  0  0  0
   -4.7519   -0.3652    4.0613 H   0  0  0  0  0  0  0  0  0  0  0  0
  1  9  1  0  0  0  0
  1 27  1  0  0  0  0
  2 21  2  0  0  0  0
  3 25  2  0  0  0  0
  4 27  2  0  0  0  0
  5  6  1  1  0  0  0
  5 11  1  0  0  0  0
  5 18  1  0  0  0  0
  6  7  1  6  0  0  0
  6 13  1  0  0  0  0
  6 29  1  0  0  0  0
  7  8  1  1  0  0  0
  7 14  1  0  0  0  0
  7 30  1  0  0  0  0
  8 10  1  6  0  0  0
  8 12  1  0  0  0  0
  8 31  1  0  0  0  0
  9  5  1  6  0  0  0
  9 15  1  0  0  0  0
  9 21  1  0  0  0  0
 10 17  1  0  0  0  0
 10 19  1  0  0  0  0
 10 20  1  6  0  0  0
 11 12  1  0  0  0  0
 11 32  1  0  0  0  0
 11 33  1  0  0  0  0
 12 34  1  0  0  0  0
 12 35  1  0  0  0  0
 13 15  1  0  0  0  0
 13 36  1  0  0  0  0
 13 37  1  0  0  0  0
 14 16  1  0  0  0  0
 14 38  1  0  0  0  0
 14 39  1  0  0  0  0
 15 40  1  0  0  0  0
 15 41  1  0  0  0  0
 16 17  1  0  0  0  0
 16 24  1  0  0  0  0
 16 42  1  6  0  0  0
 17 23  2  0  0  0  0
 18 43  1  0  0  0  0
 18 44  1  0  0  0  0
 18 45  1  0  0  0  0
 19 22  1  0  0  0  0
 19 46  1  0  0  0  0
 19 47  1  0  0  0  0
 20 48  1  0  0  0  0
 20 49  1  0  0  0  0
 20 50  1  0  0  0  0
 21 26  1  0  0  0  0
 22 25  1  0  0  0  0
 22 51  1  0  0  0  0
 22 52  1  0  0  0  0
 23 25  1  0  0  0  0
 23 53  1  0  0  0  0
 24 54  1  0  0  0  0
 24 55  1  0  0  0  0
 24 56  1  0  0  0  0
 26 57  1  0  0  0  0
 26 58  1  0  0  0  0
 26 59  1  0  0  0  0
 27 28  1  0  0  0  0
 28 60  1  0  0  0  0
 28 61  1  0  0  0  0
 28 62  1  0  0  0  0
M  END
