
 OpenBabel05252320493D

 69 68  0  0  0  0  0  0  0  0999 V2000
    7.9437   -8.8084   -1.7536 O   0  0  0  0  0  0  0  0  0  0  0  0
    8.9993   -8.2800    0.1564 O   0  0  0  0  0  0  0  0  0  0  0  0
    2.0300   -3.6824   -0.7786 C   0  0  0  0  0  0  0  0  0  0  0  0
    1.4770   -2.2530   -0.8244 C   0  0  0  0  0  0  0  0  0  0  0  0
    3.5627   -3.6809   -0.8195 C   0  0  0  0  0  0  0  0  0  0  0  0
   -0.0558   -2.2543   -0.7833 C   0  0  0  0  0  0  0  0  0  0  0  0
    4.1158   -5.1103   -0.7734 C   0  0  0  0  0  0  0  0  0  0  0  0
   -0.6085   -0.8248   -0.8288 C   0  0  0  0  0  0  0  0  0  0  0  0
    5.6487   -5.1087   -0.8142 C   0  0  0  0  0  0  0  0  0  0  0  0
   -2.1414   -0.8259   -0.7874 C   0  0  0  0  0  0  0  0  0  0  0  0
   -4.7473    6.1736    1.5093 C   0  0  0  0  0  0  0  0  0  0  0  0
   -4.3097    5.3725    0.2773 C   0  0  0  0  0  0  0  0  0  0  0  0
   -2.6937    0.6032   -0.8323 C   0  0  0  0  0  0  0  0  0  0  0  0
    6.2018   -6.5381   -0.7681 C   0  0  0  0  0  0  0  0  0  0  0  0
   -4.8332    3.9327    0.3427 C   0  0  0  0  0  0  0  0  0  0  0  0
   -4.2236    7.6132    1.4442 C   0  0  0  0  0  0  0  0  0  0  0  0
   -4.3948    3.1307   -0.8863 C   0  0  0  0  0  0  0  0  0  0  0  0
   -4.6609    8.4142    2.6763 C   0  0  0  0  0  0  0  0  0  0  0  0
   -4.2013    0.6075   -0.7908 C   0  0  0  0  0  0  0  0  0  0  0  0
    7.7338   -6.5360   -0.8075 C   0  0  0  0  0  0  0  0  0  0  0  0
   -4.9465    1.7271   -0.8140 C   0  0  0  0  0  0  0  0  0  0  0  0
   -4.1368    9.8533    2.6106 C   0  0  0  0  0  0  0  0  0  0  0  0
   -4.5700   10.6539    3.8353 C   0  0  0  0  0  0  0  0  0  0  0  0
    8.2697   -7.9378   -0.7642 C   0  0  0  0  0  0  0  0  0  0  0  0
    8.3837  -10.1138   -1.8042 C   0  0  0  0  0  0  0  0  0  0  0  0
    1.6885   -4.1780    0.1570 H   0  0  0  0  0  0  0  0  0  0  0  0
    1.6403   -4.2546   -1.6494 H   0  0  0  0  0  0  0  0  0  0  0  0
    1.8668   -1.6809    0.0465 H   0  0  0  0  0  0  0  0  0  0  0  0
    1.8185   -1.7573   -1.7600 H   0  0  0  0  0  0  0  0  0  0  0  0
    3.9524   -3.1086    0.0513 H   0  0  0  0  0  0  0  0  0  0  0  0
    3.9043   -3.1854   -1.7551 H   0  0  0  0  0  0  0  0  0  0  0  0
   -0.3972   -2.7500    0.1523 H   0  0  0  0  0  0  0  0  0  0  0  0
   -0.4457   -2.8263   -1.6542 H   0  0  0  0  0  0  0  0  0  0  0  0
    3.7743   -5.6058    0.1622 H   0  0  0  0  0  0  0  0  0  0  0  0
    3.7262   -5.6826   -1.6442 H   0  0  0  0  0  0  0  0  0  0  0  0
   -0.2185   -0.2529    0.0421 H   0  0  0  0  0  0  0  0  0  0  0  0
   -0.2671   -0.3290   -1.7643 H   0  0  0  0  0  0  0  0  0  0  0  0
    6.0381   -4.5362    0.0566 H   0  0  0  0  0  0  0  0  0  0  0  0
    5.9903   -4.6134   -1.7499 H   0  0  0  0  0  0  0  0  0  0  0  0
   -2.4830   -1.3212    0.1486 H   0  0  0  0  0  0  0  0  0  0  0  0
   -2.5319   -1.3971   -1.6588 H   0  0  0  0  0  0  0  0  0  0  0  0
   -4.3535    5.6811    2.4258 H   0  0  0  0  0  0  0  0  0  0  0  0
   -5.8585    6.1894    1.5609 H   0  0  0  0  0  0  0  0  0  0  0  0
   -3.1985    5.3571    0.2259 H   0  0  0  0  0  0  0  0  0  0  0  0
   -4.7035    5.8646   -0.6395 H   0  0  0  0  0  0  0  0  0  0  0  0
   -2.3057    1.1707    0.0419 H   0  0  0  0  0  0  0  0  0  0  0  0
   -2.3549    1.0946   -1.7705 H   0  0  0  0  0  0  0  0  0  0  0  0
    5.8612   -7.0343    0.1677 H   0  0  0  0  0  0  0  0  0  0  0  0
    5.8103   -7.1093   -1.6390 H   0  0  0  0  0  0  0  0  0  0  0  0
   -4.4389    3.4394    1.2589 H   0  0  0  0  0  0  0  0  0  0  0  0
   -5.9446    3.9491    0.3949 H   0  0  0  0  0  0  0  0  0  0  0  0
   -3.1124    7.5973    1.3925 H   0  0  0  0  0  0  0  0  0  0  0  0
   -4.6174    8.1058    0.5277 H   0  0  0  0  0  0  0  0  0  0  0  0
   -4.7888    3.6118   -1.8072 H   0  0  0  0  0  0  0  0  0  0  0  0
   -3.2869    3.1403   -0.9436 H   0  0  0  0  0  0  0  0  0  0  0  0
   -4.2670    7.9219    3.5929 H   0  0  0  0  0  0  0  0  0  0  0  0
   -5.7721    8.4304    2.7281 H   0  0  0  0  0  0  0  0  0  0  0  0
   -4.7255   -0.3435   -0.7373 H   0  0  0  0  0  0  0  0  0  0  0  0
    8.1227   -5.9592    0.0609 H   0  0  0  0  0  0  0  0  0  0  0  0
    8.0873   -6.0489   -1.7418 H   0  0  0  0  0  0  0  0  0  0  0  0
   -6.0270    1.6183   -0.7785 H   0  0  0  0  0  0  0  0  0  0  0  0
   -3.0260    9.8448    2.5623 H   0  0  0  0  0  0  0  0  0  0  0  0
   -4.5298   10.3530    1.6983 H   0  0  0  0  0  0  0  0  0  0  0  0
   -4.1772   11.6898    3.7610 H   0  0  0  0  0  0  0  0  0  0  0  0
   -4.1715   10.1881    4.7618 H   0  0  0  0  0  0  0  0  0  0  0  0
   -5.6784   10.6973    3.8961 H   0  0  0  0  0  0  0  0  0  0  0  0
    9.4933  -10.1422   -1.8546 H   0  0  0  0  0  0  0  0  0  0  0  0
    8.0340  -10.6705   -0.9085 H   0  0  0  0  0  0  0  0  0  0  0  0
    7.9721  -10.6016   -2.7115 H   0  0  0  0  0  0  0  0  0  0  0  0
  1 24  1  0  0  0  0
  1 25  1  0  0  0  0
  2 24  2  0  0  0  0
  3  4  1  0  0  0  0
  3  5  1  0  0  0  0
  3 26  1  0  0  0  0
  3 27  1  0  0  0  0
  4  6  1  0  0  0  0
  4 28  1  0  0  0  0
  4 29  1  0  0  0  0
  5  7  1  0  0  0  0
  5 30  1  0  0  0  0
  5 31  1  0  0  0  0
  6  8  1  0  0  0  0
  6 32  1  0  0  0  0
  6 33  1  0  0  0  0
  7  9  1  0  0  0  0
  7 34  1  0  0  0  0
  7 35  1  0  0  0  0
  8 10  1  0  0  0  0
  8 36  1  0  0  0  0
  8 37  1  0  0  0  0
  9 14  1  0  0  0  0
  9 38  1  0  0  0  0
  9 39  1  0  0  0  0
 10 13  1  0  0  0  0
 10 40  1  0  0  0  0
 10 41  1  0  0  0  0
 11 12  1  0  0  0  0
 11 16  1  0  0  0  0
 11 42  1  0  0  0  0
 11 43  1  0  0  0  0
 12 15  1  0  0  0  0
 12 44  1  0  0  0  0
 12 45  1  0  0  0  0
 13 19  1  0  0  0  0
 13 46  1  0  0  0  0
 13 47  1  0  0  0  0
 14 20  1  0  0  0  0
 14 48  1  0  0  0  0
 14 49  1  0  0  0  0
 15 17  1  0  0  0  0
 15 50  1  0  0  0  0
 15 51  1  0  0  0  0
 16 18  1  0  0  0  0
 16 52  1  0  0  0  0
 16 53  1  0  0  0  0
 17 21  1  0  0  0  0
 17 54  1  0  0  0  0
 17 55  1  0  0  0  0
 18 22  1  0  0  0  0
 18 56  1  0  0  0  0
 18 57  1  0  0  0  0
 19 21  2  0  0  0  0
 19 58  1  0  0  0  0
 20 24  1  0  0  0  0
 20 59  1  0  0  0  0
 20 60  1  0  0  0  0
 21 61  1  0  0  0  0
 22 23  1  0  0  0  0
 22 62  1  0  0  0  0
 22 63  1  0  0  0  0
 23 64  1  0  0  0  0
 23 65  1  0  0  0  0
 23 66  1  0  0  0  0
 25 67  1  0  0  0  0
 25 68  1  0  0  0  0
 25 69  1  0  0  0  0
M  END
