
 OpenBabel05292312453D

 53 52  0  0  0  0  0  0  0  0999 V2000
    4.0152   -0.9427    1.3653 O   0  0  0  0  0  0  0  0  0  0  0  0
    4.7787   -1.1433   -0.7368 O   0  0  0  0  0  0  0  0  0  0  0  0
   -1.0705   -1.7421   -0.3037 C   0  0  0  0  0  0  0  0  0  0  0  0
   -2.4066   -1.2528   -0.8751 C   0  0  0  0  0  0  0  0  0  0  0  0
    0.0763   -0.8086   -0.7093 C   0  0  0  0  0  0  0  0  0  0  0  0
   -3.5535   -2.1863   -0.4695 C   0  0  0  0  0  0  0  0  0  0  0  0
    1.4124   -1.2977   -0.1378 C   0  0  0  0  0  0  0  0  0  0  0  0
   -4.8890   -1.6971   -1.0406 C   0  0  0  0  0  0  0  0  0  0  0  0
    2.5584   -0.3652   -0.5445 C   0  0  0  0  0  0  0  0  0  0  0  0
   -6.0203   -2.6132   -0.6437 C   0  0  0  0  0  0  0  0  0  0  0  0
    3.8635   -0.8476    0.0195 C   0  0  0  0  0  0  0  0  0  0  0  0
   -7.2948   -2.4070   -1.0162 C   0  0  0  0  0  0  0  0  0  0  0  0
   -7.7196   -1.2367   -1.8696 C   0  0  0  0  0  0  0  0  0  0  0  0
   -9.2049   -1.2457   -2.1387 C   0  0  0  0  0  0  0  0  0  0  0  0
   -9.8188   -0.3042   -2.8756 C   0  0  0  0  0  0  0  0  0  0  0  0
   -9.0829    0.8535   -3.5055 C   0  0  0  0  0  0  0  0  0  0  0  0
    5.1715   -1.3737    1.9796 C   0  0  0  0  0  0  0  0  0  0  0  0
  -10.0094    1.7564   -4.2751 C   0  0  0  0  0  0  0  0  0  0  0  0
   -9.5340    2.8403   -4.9051 C   0  0  0  0  0  0  0  0  0  0  0  0
  -10.4285    3.7664   -5.6836 C   0  0  0  0  0  0  0  0  0  0  0  0
   -9.9913    3.8258   -7.1424 C   0  0  0  0  0  0  0  0  0  0  0  0
   -1.1380   -1.7797    0.8061 H   0  0  0  0  0  0  0  0  0  0  0  0
   -0.8618   -2.7664   -0.6844 H   0  0  0  0  0  0  0  0  0  0  0  0
   -2.3392   -1.2152   -1.9849 H   0  0  0  0  0  0  0  0  0  0  0  0
   -2.6152   -0.2285   -0.4944 H   0  0  0  0  0  0  0  0  0  0  0  0
    0.1435   -0.7711   -1.8191 H   0  0  0  0  0  0  0  0  0  0  0  0
   -0.1323    0.2157   -0.3286 H   0  0  0  0  0  0  0  0  0  0  0  0
   -3.6216   -2.2235    0.6405 H   0  0  0  0  0  0  0  0  0  0  0  0
   -3.3454   -3.2107   -0.8508 H   0  0  0  0  0  0  0  0  0  0  0  0
    1.3427   -1.3357    0.9720 H   0  0  0  0  0  0  0  0  0  0  0  0
    1.6224   -2.3220   -0.5184 H   0  0  0  0  0  0  0  0  0  0  0  0
   -4.8208   -1.6629   -2.1498 H   0  0  0  0  0  0  0  0  0  0  0  0
   -5.0973   -0.6747   -0.6569 H   0  0  0  0  0  0  0  0  0  0  0  0
    2.3642    0.6608   -0.1639 H   0  0  0  0  0  0  0  0  0  0  0  0
    2.6222   -0.3242   -1.6547 H   0  0  0  0  0  0  0  0  0  0  0  0
   -5.8050   -3.4830   -0.0281 H   0  0  0  0  0  0  0  0  0  0  0  0
   -8.0397   -3.1235   -0.6799 H   0  0  0  0  0  0  0  0  0  0  0  0
   -7.1785   -1.2835   -2.8388 H   0  0  0  0  0  0  0  0  0  0  0  0
   -7.4553   -0.2942   -1.3441 H   0  0  0  0  0  0  0  0  0  0  0  0
   -9.8192   -2.0415   -1.7257 H   0  0  0  0  0  0  0  0  0  0  0  0
  -10.8930   -0.3949   -3.0145 H   0  0  0  0  0  0  0  0  0  0  0  0
   -8.5874    1.4473   -2.7073 H   0  0  0  0  0  0  0  0  0  0  0  0
   -8.3107    0.4587   -4.2007 H   0  0  0  0  0  0  0  0  0  0  0  0
    6.0171   -0.7020    1.7184 H   0  0  0  0  0  0  0  0  0  0  0  0
    5.0275   -1.3562    3.0794 H   0  0  0  0  0  0  0  0  0  0  0  0
    5.4068   -2.4133    1.6659 H   0  0  0  0  0  0  0  0  0  0  0  0
  -11.0720    1.5317   -4.3235 H   0  0  0  0  0  0  0  0  0  0  0  0
   -8.4718    3.0677   -4.8580 H   0  0  0  0  0  0  0  0  0  0  0  0
  -10.3648    4.7824   -5.2394 H   0  0  0  0  0  0  0  0  0  0  0  0
  -11.4886    3.4328   -5.6412 H   0  0  0  0  0  0  0  0  0  0  0  0
  -10.0626    2.8186   -7.6062 H   0  0  0  0  0  0  0  0  0  0  0  0
   -8.9441    4.1896   -7.2185 H   0  0  0  0  0  0  0  0  0  0  0  0
  -10.6508    4.5229   -7.7010 H   0  0  0  0  0  0  0  0  0  0  0  0
  1 11  1  0  0  0  0
  1 17  1  0  0  0  0
  2 11  2  0  0  0  0
  3  4  1  0  0  0  0
  3  5  1  0  0  0  0
  3 22  1  0  0  0  0
  3 23  1  0  0  0  0
  4  6  1  0  0  0  0
  4 24  1  0  0  0  0
  4 25  1  0  0  0  0
  5  7  1  0  0  0  0
  5 26  1  0  0  0  0
  5 27  1  0  0  0  0
  6  8  1  0  0  0  0
  6 28  1  0  0  0  0
  6 29  1  0  0  0  0
  7  9  1  0  0  0  0
  7 30  1  0  0  0  0
  7 31  1  0  0  0  0
  8 10  1  0  0  0  0
  8 32  1  0  0  0  0
  8 33  1  0  0  0  0
  9 11  1  0  0  0  0
  9 34  1  0  0  0  0
  9 35  1  0  0  0  0
 10 12  2  0  0  0  0
 10 36  1  0  0  0  0
 12 13  1  0  0  0  0
 12 37  1  0  0  0  0
 13 14  1  0  0  0  0
 13 38  1  0  0  0  0
 13 39  1  0  0  0  0
 14 15  2  0  0  0  0
 14 40  1  0  0  0  0
 15 16  1  0  0  0  0
 15 41  1  0  0  0  0
 16 18  1  0  0  0  0
 16 42  1  0  0  0  0
 16 43  1  0  0  0  0
 17 44  1  0  0  0  0
 17 45  1  0  0  0  0
 17 46  1  0  0  0  0
 18 19  2  0  0  0  0
 18 47  1  0  0  0  0
 19 20  1  0  0  0  0
 19 48  1  0  0  0  0
 20 21  1  0  0  0  0
 20 49  1  0  0  0  0
 20 50  1  0  0  0  0
 21 51  1  0  0  0  0
 21 52  1  0  0  0  0
 21 53  1  0  0  0  0
M  END
