
 OpenBabel09092110093D

 38 37  0  0  0  0  0  0  0  0999 V2000
   -4.5640   -0.5768   -0.0149 C   0  0  0  0  0  0  0  0  0  0  0  0
   -3.3135    0.3151   -0.0052 C   0  0  0  0  0  0  0  0  0  0  0  0
   -2.0340   -0.5301   -0.0097 C   0  0  0  0  0  0  0  0  0  0  0  0
   -0.7867    0.3617   -0.0006 C   0  0  0  0  0  0  0  0  0  0  0  0
    0.4942   -0.4812   -0.0055 C   0  0  0  0  0  0  0  0  0  0  0  0
    1.7397    0.4131    0.0028 C   0  0  0  0  0  0  0  0  0  0  0  0
    3.0223   -0.4272   -0.0026 C   0  0  0  0  0  0  0  0  0  0  0  0
    4.2661    0.4695    0.0050 C   0  0  0  0  0  0  0  0  0  0  0  0
    5.5500   -0.3686   -0.0008 C   0  0  0  0  0  0  0  0  0  0  0  0
    6.7921    0.5300    0.0063 C   0  0  0  0  0  0  0  0  0  0  0  0
    8.0728   -0.2996    0.0004 C   0  0  0  0  0  0  0  0  0  0  0  0
   -5.8455    1.4317   -0.0011 O   0  0  0  0  0  0  0  0  0  0  0  0
   -7.0361   -0.4385   -0.0188 O   0  0  0  0  0  0  0  0  0  0  0  0
   -5.8528    0.2100   -0.0111 C   0  0  0  0  0  0  0  0  0  0  0  0
   -7.0831   -1.4048   -0.0268 H   0  0  0  0  0  0  0  0  0  0  0  0
   -4.5493   -1.2170   -0.9234 H   0  0  0  0  0  0  0  0  0  0  0  0
   -4.5528   -1.2317    0.8832 H   0  0  0  0  0  0  0  0  0  0  0  0
   -3.3230    0.9691   -0.9052 H   0  0  0  0  0  0  0  0  0  0  0  0
   -3.3264    0.9545    0.9052 H   0  0  0  0  0  0  0  0  0  0  0  0
   -2.0235   -1.1850    0.8895 H   0  0  0  0  0  0  0  0  0  0  0  0
   -2.0205   -1.1706   -0.9192 H   0  0  0  0  0  0  0  0  0  0  0  0
   -0.7979    1.0167   -0.8998 H   0  0  0  0  0  0  0  0  0  0  0  0
   -0.8006    1.0023    0.9089 H   0  0  0  0  0  0  0  0  0  0  0  0
    0.5063   -1.1360    0.8938 H   0  0  0  0  0  0  0  0  0  0  0  0
    0.5085   -1.1219   -0.9149 H   0  0  0  0  0  0  0  0  0  0  0  0
    1.7267    1.0679   -0.8965 H   0  0  0  0  0  0  0  0  0  0  0  0
    1.7250    1.0538    0.9122 H   0  0  0  0  0  0  0  0  0  0  0  0
    3.0361   -1.0818    0.8968 H   0  0  0  0  0  0  0  0  0  0  0  0
    3.0374   -1.0679   -0.9119 H   0  0  0  0  0  0  0  0  0  0  0  0
    4.2517    1.1242   -0.8944 H   0  0  0  0  0  0  0  0  0  0  0  0
    4.2507    1.1104    0.9143 H   0  0  0  0  0  0  0  0  0  0  0  0
    5.5653   -1.0230    0.8987 H   0  0  0  0  0  0  0  0  0  0  0  0
    5.5660   -1.0094   -0.9101 H   0  0  0  0  0  0  0  0  0  0  0  0
    6.7850    1.1847   -0.8924 H   0  0  0  0  0  0  0  0  0  0  0  0
    6.7844    1.1711    0.9148 H   0  0  0  0  0  0  0  0  0  0  0  0
    8.1167   -0.9484    0.9011 H   0  0  0  0  0  0  0  0  0  0  0  0
    8.1172   -0.9348   -0.9099 H   0  0  0  0  0  0  0  0  0  0  0  0
    8.9539    0.3761    0.0058 H   0  0  0  0  0  0  0  0  0  0  0  0
  1 14  1  0  0  0  0
  1  2  1  0  0  0  0
  1 16  1  0  0  0  0
  1 17  1  0  0  0  0
  2  3  1  0  0  0  0
  2 18  1  0  0  0  0
  2 19  1  0  0  0  0
  3  4  1  0  0  0  0
  3 20  1  0  0  0  0
  3 21  1  0  0  0  0
  4  5  1  0  0  0  0
  4 22  1  0  0  0  0
  4 23  1  0  0  0  0
  5  6  1  0  0  0  0
  5 24  1  0  0  0  0
  5 25  1  0  0  0  0
  6  7  1  0  0  0  0
  6 26  1  0  0  0  0
  6 27  1  0  0  0  0
  7  8  1  0  0  0  0
  7 28  1  0  0  0  0
  7 29  1  0  0  0  0
  8  9  1  0  0  0  0
  8 30  1  0  0  0  0
  8 31  1  0  0  0  0
  9 10  1  0  0  0  0
  9 32  1  0  0  0  0
  9 33  1  0  0  0  0
 10 11  1  0  0  0  0
 10 34  1  0  0  0  0
 10 35  1  0  0  0  0
 11 36  1  0  0  0  0
 11 37  1  0  0  0  0
 11 38  1  0  0  0  0
 12 14  2  0  0  0  0
 13 14  1  0  0  0  0
 13 15  1  0  0  0  0
M  END
