
 OpenBabel10222214173D

 55 58  0  0  1  0  0  0  0  0999 V2000
   -4.3792   -0.8612   -3.3537 O   0  0  0  0  0  0  0  0  0  0  0  0
    4.8494    0.9397    1.6909 O   0  0  0  0  0  0  0  0  0  0  0  0
    2.0060    0.2808    0.5227 C   0  0  2  0  0  0  0  0  0  0  0  0
    1.2716   -0.9932    0.0667 C   0  0  2  0  0  0  0  0  0  0  0  0
   -0.2469   -0.9533    0.3474 C   0  0  1  0  0  0  0  0  0  0  0  0
   -0.8820    0.2938   -0.3577 C   0  0  1  0  0  0  0  0  0  0  0  0
   -2.4301    0.3595   -0.0170 C   0  0  2  0  0  0  0  0  0  0  0  0
    1.4146    1.4735   -0.2646 C   0  0  0  0  0  0  0  0  0  0  0  0
    3.4373   -0.1188    0.0971 C   0  0  2  0  0  0  0  0  0  0  0  0
   -0.1024    1.6051   -0.0026 C   0  0  0  0  0  0  0  0  0  0  0  0
    2.1135   -2.1172    0.6690 C   0  0  0  0  0  0  0  0  0  0  0  0
    3.5670   -1.5879    0.5692 C   0  0  0  0  0  0  0  0  0  0  0  0
   -0.9091   -2.2583   -0.1425 C   0  0  0  0  0  0  0  0  0  0  0  0
   -3.0672   -0.9894   -0.3995 C   0  0  0  0  0  0  0  0  0  0  0  0
    1.9288    0.5546    2.0628 C   0  0  0  0  0  0  0  0  0  0  0  0
   -3.1842    1.5182   -0.7808 C   0  0  0  0  0  0  0  0  0  0  0  0
   -2.3841   -2.1509   -0.4211 C   0  0  0  0  0  0  0  0  0  0  0  0
   -2.6900    0.5996    1.4961 C   0  0  0  0  0  0  0  0  0  0  0  0
   -4.4816   -0.9554   -0.9057 C   0  0  0  0  0  0  0  0  0  0  0  0
   -3.5176    1.0904   -2.2111 C   0  0  0  0  0  0  0  0  0  0  0  0
    4.5838    0.7776    0.5094 C   0  0  0  0  0  0  0  0  0  0  0  0
   -4.5395   -0.0852   -2.1935 C   0  0  1  0  0  0  0  0  0  0  0  0
    5.4165    1.4619   -0.5322 C   0  0  0  0  0  0  0  0  0  0  0  0
    1.3852   -1.0834   -1.0428 H   0  0  0  0  0  0  0  0  0  0  0  0
   -0.4016   -0.8748    1.4377 H   0  0  0  0  0  0  0  0  0  0  0  0
   -0.7566    0.1414   -1.4526 H   0  0  0  0  0  0  0  0  0  0  0  0
    1.5566    1.3103   -1.3563 H   0  0  0  0  0  0  0  0  0  0  0  0
    1.9396    2.4159    0.0034 H   0  0  0  0  0  0  0  0  0  0  0  0
    3.4239   -0.1559   -1.0193 H   0  0  0  0  0  0  0  0  0  0  0  0
   -0.2539    1.8787    1.0560 H   0  0  0  0  0  0  0  0  0  0  0  0
   -0.4672    2.4548   -0.6116 H   0  0  0  0  0  0  0  0  0  0  0  0
    1.9542   -3.1188    0.2168 H   0  0  0  0  0  0  0  0  0  0  0  0
    1.8443   -2.1962    1.7445 H   0  0  0  0  0  0  0  0  0  0  0  0
    4.0179   -1.6681    1.5830 H   0  0  0  0  0  0  0  0  0  0  0  0
    4.2021   -2.1523   -0.1473 H   0  0  0  0  0  0  0  0  0  0  0  0
   -0.6926   -3.0735    0.5805 H   0  0  0  0  0  0  0  0  0  0  0  0
   -0.4759   -2.5484   -1.1246 H   0  0  0  0  0  0  0  0  0  0  0  0
    2.4624    1.4961    2.3078 H   0  0  0  0  0  0  0  0  0  0  0  0
    0.8943    0.6689    2.4344 H   0  0  0  0  0  0  0  0  0  0  0  0
    2.3909   -0.2481    2.6697 H   0  0  0  0  0  0  0  0  0  0  0  0
   -2.6150    2.4652   -0.7516 H   0  0  0  0  0  0  0  0  0  0  0  0
   -4.1649    1.7488   -0.3065 H   0  0  0  0  0  0  0  0  0  0  0  0
   -2.8825   -3.0556   -0.7587 H   0  0  0  0  0  0  0  0  0  0  0  0
   -2.2893    1.5761    1.8334 H   0  0  0  0  0  0  0  0  0  0  0  0
   -3.7817    0.6156    1.7030 H   0  0  0  0  0  0  0  0  0  0  0  0
   -2.2818   -0.2006    2.1412 H   0  0  0  0  0  0  0  0  0  0  0  0
   -4.9399   -1.9502   -1.0999 H   0  0  0  0  0  0  0  0  0  0  0  0
   -5.0787   -0.4795   -0.0979 H   0  0  0  0  0  0  0  0  0  0  0  0
   -3.9266    1.9197   -2.8270 H   0  0  0  0  0  0  0  0  0  0  0  0
   -2.5628    0.7738   -2.6806 H   0  0  0  0  0  0  0  0  0  0  0  0
   -5.5754    0.3185   -2.2088 H   0  0  0  0  0  0  0  0  0  0  0  0
    5.8896    0.7026   -1.1893 H   0  0  0  0  0  0  0  0  0  0  0  0
    4.7719    2.1263   -1.1449 H   0  0  0  0  0  0  0  0  0  0  0  0
    6.2146    2.0736   -0.0598 H   0  0  0  0  0  0  0  0  0  0  0  0
   -3.5168   -1.3465   -3.2698 H   0  0  0  0  0  0  0  0  0  0  0  0
  1 22  1  0  0  0  0
  1 55  1  0  0  0  0
  2 21  2  0  0  0  0
  3  4  1  6  0  0  0
  3  8  1  0  0  0  0
  3 15  1  0  0  0  0
  4  5  1  1  0  0  0
  4 11  1  0  0  0  0
  4 24  1  0  0  0  0
  5  6  1  6  0  0  0
  5 13  1  0  0  0  0
  5 25  1  0  0  0  0
  6  7  1  1  0  0  0
  6 10  1  0  0  0  0
  6 26  1  0  0  0  0
  7 14  1  0  0  0  0
  7 16  1  0  0  0  0
  7 18  1  1  0  0  0
  8 10  1  0  0  0  0
  8 27  1  0  0  0  0
  8 28  1  0  0  0  0
  9  3  1  1  0  0  0
  9 12  1  0  0  0  0
  9 21  1  0  0  0  0
  9 29  1  0  0  0  0
 10 30  1  0  0  0  0
 10 31  1  0  0  0  0
 11 12  1  0  0  0  0
 11 32  1  0  0  0  0
 11 33  1  0  0  0  0
 12 34  1  0  0  0  0
 12 35  1  0  0  0  0
 13 17  1  0  0  0  0
 13 36  1  0  0  0  0
 13 37  1  0  0  0  0
 14 17  2  0  0  0  0
 14 19  1  0  0  0  0
 15 38  1  0  0  0  0
 15 39  1  0  0  0  0
 15 40  1  0  0  0  0
 16 20  1  0  0  0  0
 16 41  1  0  0  0  0
 16 42  1  0  0  0  0
 17 43  1  0  0  0  0
 18 44  1  0  0  0  0
 18 45  1  0  0  0  0
 18 46  1  0  0  0  0
 19 22  1  0  0  0  0
 19 47  1  0  0  0  0
 19 48  1  0  0  0  0
 20 22  1  0  0  0  0
 20 49  1  0  0  0  0
 20 50  1  0  0  0  0
 21 23  1  0  0  0  0
 22 51  1  6  0  0  0
 23 52  1  0  0  0  0
 23 53  1  0  0  0  0
 23 54  1  0  0  0  0
M  END
