
 OpenBabel09152117443D

 53 56  0  0  1  0  0  0  0  0999 V2000
    5.2712   -1.5526   -1.4739 O   0  0  0  0  0  0  0  0  0  0  0  0
   -5.3949    0.7292    1.7673 O   0  0  0  0  0  0  0  0  0  0  0  0
    1.8144    0.7690   -0.1083 C   0  0  2  0  0  0  0  0  0  0  0  0
    2.4118   -0.5533   -0.6315 C   0  0  1  0  0  0  0  0  0  0  0  0
    0.3746    1.0193   -0.6115 C   0  0  1  0  0  0  0  0  0  0  0  0
   -0.5314   -0.1767   -0.1435 C   0  0  1  0  0  0  0  0  0  0  0  0
   -2.0453    0.0153   -0.5579 C   0  0  2  0  0  0  0  0  0  0  0  0
    3.8007   -0.4556    0.0390 C   0  0  2  0  0  0  0  0  0  0  0  0
    1.5335   -1.7143   -0.1098 C   0  0  0  0  0  0  0  0  0  0  0  0
    0.0703   -1.5526   -0.5792 C   0  0  0  0  0  0  0  0  0  0  0  0
    2.9056    1.7914   -0.4272 C   0  0  0  0  0  0  0  0  0  0  0  0
   -0.1709    2.3482   -0.0439 C   0  0  0  0  0  0  0  0  0  0  0  0
    4.2265    1.0126   -0.2032 C   0  0  0  0  0  0  0  0  0  0  0  0
   -2.4775    1.4339   -0.1279 C   0  0  0  0  0  0  0  0  0  0  0  0
    2.5381   -0.6332   -2.1903 C   0  0  0  0  0  0  0  0  0  0  0  0
   -1.5957    2.5943   -0.5306 C   0  0  0  0  0  0  0  0  0  0  0  0
   -2.8961   -1.0826    0.1803 C   0  0  0  0  0  0  0  0  0  0  0  0
   -2.2483   -0.1009   -2.0914 C   0  0  0  0  0  0  0  0  0  0  0  0
    4.8483   -1.4825   -0.3298 C   0  0  0  0  0  0  0  0  0  0  0  0
   -4.3790   -0.7380    0.2098 C   0  0  0  0  0  0  0  0  0  0  0  0
   -3.5975    1.6668    0.5938 C   0  0  0  0  0  0  0  0  0  0  0  0
   -4.5232    0.5701    0.9274 C   0  0  0  0  0  0  0  0  0  0  0  0
    5.3902   -2.4130    0.7129 C   0  0  0  0  0  0  0  0  0  0  0  0
    1.7602    0.7168    1.0079 H   0  0  0  0  0  0  0  0  0  0  0  0
    0.3850    1.0900   -1.7178 H   0  0  0  0  0  0  0  0  0  0  0  0
   -0.4978   -0.1589    0.9711 H   0  0  0  0  0  0  0  0  0  0  0  0
    3.6151   -0.5432    1.1371 H   0  0  0  0  0  0  0  0  0  0  0  0
    1.5316   -1.7090    1.0030 H   0  0  0  0  0  0  0  0  0  0  0  0
    1.9436   -2.6940   -0.4379 H   0  0  0  0  0  0  0  0  0  0  0  0
    0.0251   -1.6650   -1.6779 H   0  0  0  0  0  0  0  0  0  0  0  0
   -0.5131   -2.3880   -0.1421 H   0  0  0  0  0  0  0  0  0  0  0  0
    2.8358    2.7476    0.1329 H   0  0  0  0  0  0  0  0  0  0  0  0
    2.8263    2.0381   -1.5081 H   0  0  0  0  0  0  0  0  0  0  0  0
    0.4660    3.1961   -0.3751 H   0  0  0  0  0  0  0  0  0  0  0  0
   -0.1636    2.3198    1.0687 H   0  0  0  0  0  0  0  0  0  0  0  0
    4.8388    1.1287   -1.1247 H   0  0  0  0  0  0  0  0  0  0  0  0
    4.8193    1.3742    0.6647 H   0  0  0  0  0  0  0  0  0  0  0  0
    3.2015    0.1461   -2.6128 H   0  0  0  0  0  0  0  0  0  0  0  0
    2.9601   -1.6156   -2.4869 H   0  0  0  0  0  0  0  0  0  0  0  0
    1.5682   -0.5354   -2.7112 H   0  0  0  0  0  0  0  0  0  0  0  0
   -1.5888    2.6849   -1.6370 H   0  0  0  0  0  0  0  0  0  0  0  0
   -1.9670    3.5602   -0.1233 H   0  0  0  0  0  0  0  0  0  0  0  0
   -2.5762   -1.1584    1.2446 H   0  0  0  0  0  0  0  0  0  0  0  0
   -2.7467   -2.0796   -0.2854 H   0  0  0  0  0  0  0  0  0  0  0  0
   -1.6206    0.6167   -2.6545 H   0  0  0  0  0  0  0  0  0  0  0  0
   -2.0069   -1.1204   -2.4540 H   0  0  0  0  0  0  0  0  0  0  0  0
   -3.3011    0.1055   -2.3717 H   0  0  0  0  0  0  0  0  0  0  0  0
   -4.9812   -1.5284    0.7082 H   0  0  0  0  0  0  0  0  0  0  0  0
   -4.7497   -0.6336   -0.8296 H   0  0  0  0  0  0  0  0  0  0  0  0
   -3.8406    2.6710    0.9299 H   0  0  0  0  0  0  0  0  0  0  0  0
    5.8623   -1.8254    1.5277 H   0  0  0  0  0  0  0  0  0  0  0  0
    4.5625   -3.0223    1.1326 H   0  0  0  0  0  0  0  0  0  0  0  0
    6.1508   -3.0948    0.2761 H   0  0  0  0  0  0  0  0  0  0  0  0
  1 19  2  0  0  0  0
  2 22  2  0  0  0  0
  3  4  1  6  0  0  0
  3 11  1  0  0  0  0
  3 24  1  0  0  0  0
  4  8  1  1  0  0  0
  4  9  1  0  0  0  0
  4 15  1  0  0  0  0
  5  3  1  1  0  0  0
  5 12  1  0  0  0  0
  5 25  1  0  0  0  0
  6  5  1  6  0  0  0
  6 10  1  0  0  0  0
  6 26  1  0  0  0  0
  7  6  1  1  0  0  0
  7 14  1  0  0  0  0
  7 17  1  0  0  0  0
  7 18  1  0  0  0  0
  8 13  1  0  0  0  0
  8 19  1  0  0  0  0
  8 27  1  1  0  0  0
  9 10  1  0  0  0  0
  9 28  1  0  0  0  0
  9 29  1  0  0  0  0
 10 30  1  0  0  0  0
 10 31  1  0  0  0  0
 11 13  1  0  0  0  0
 11 32  1  0  0  0  0
 11 33  1  0  0  0  0
 12 16  1  0  0  0  0
 12 34  1  0  0  0  0
 12 35  1  0  0  0  0
 13 36  1  0  0  0  0
 13 37  1  0  0  0  0
 14 16  1  0  0  0  0
 14 21  2  0  0  0  0
 15 38  1  0  0  0  0
 15 39  1  0  0  0  0
 15 40  1  0  0  0  0
 16 41  1  0  0  0  0
 16 42  1  0  0  0  0
 17 20  1  0  0  0  0
 17 43  1  0  0  0  0
 17 44  1  0  0  0  0
 18 45  1  0  0  0  0
 18 46  1  0  0  0  0
 18 47  1  0  0  0  0
 19 23  1  0  0  0  0
 20 22  1  0  0  0  0
 20 48  1  0  0  0  0
 20 49  1  0  0  0  0
 21 22  1  0  0  0  0
 21 50  1  0  0  0  0
 23 51  1  0  0  0  0
 23 52  1  0  0  0  0
 23 53  1  0  0  0  0
M  END
