
 OpenBabel07152417563D

 73 77  0  0  1  0  0  0  0  0999 V2000
    0.7863   -0.0704    1.7658 O   0  0  0  0  0  0  0  0  0  0  0  0
    0.8004    2.7776    1.1781 O   0  0  0  0  0  0  0  0  0  0  0  0
   -1.2159    3.3643    0.0835 O   0  0  0  0  0  0  0  0  0  0  0  0
    2.8820    2.1160    3.9004 O   0  0  0  0  0  0  0  0  0  0  0  0
    4.7327    0.0960    3.0208 O   0  0  0  0  0  0  0  0  0  0  0  0
    1.0259   -2.3305    1.1002 O   0  0  0  0  0  0  0  0  0  0  0  0
    3.5523   -2.4305    2.5047 O   0  0  0  0  0  0  0  0  0  0  0  0
    0.0302    5.8703   -0.7033 O   0  0  0  0  0  0  0  0  0  0  0  0
    1.6341    4.7213   -2.6046 O   0  0  0  0  0  0  0  0  0  0  0  0
    0.1338    2.4156   -3.2585 O   0  0  0  0  0  0  0  0  0  0  0  0
   -1.9643   -2.1605   -1.0338 O   0  0  0  0  0  0  0  0  0  0  0  0
   -1.1393   -2.5192    2.9340 O   0  0  0  0  0  0  0  0  0  0  0  0
   -3.7389   -2.0300    3.4676 O   0  0  0  0  0  0  0  0  0  0  0  0
   -6.5791   -1.6246   -0.3542 O   0  0  0  0  0  0  0  0  0  0  0  0
    1.2844    0.1957   -4.3274 O   0  0  0  0  0  0  0  0  0  0  0  0
    3.1187   -1.7746   -4.7155 O   0  0  0  0  0  0  0  0  0  0  0  0
    1.0544    0.9310    2.7528 C   0  0  1  0  0  0  0  0  0  0  0  0
    2.5644    1.1934    2.8482 C   0  0  2  0  0  0  0  0  0  0  0  0
    3.3134   -0.1184    3.1007 C   0  0  1  0  0  0  0  0  0  0  0  0
    2.9107   -1.2087    2.1059 C   0  0  2  0  0  0  0  0  0  0  0  0
    0.7752    4.6948   -0.3189 C   0  0  1  0  0  0  0  0  0  0  0  0
   -0.0093    3.8417    0.6957 C   0  0  2  0  0  0  0  0  0  0  0  0
    1.0642    3.8823   -1.5828 C   0  0  1  0  0  0  0  0  0  0  0  0
   -0.2178    3.2624   -2.1510 C   0  0  2  0  0  0  0  0  0  0  0  0
    1.3737   -1.3423    2.0833 C   0  0  1  0  0  0  0  0  0  0  0  0
    0.2668    2.1953    2.3731 C   0  0  0  0  0  0  0  0  0  0  0  0
   -0.9735    2.5081   -1.0469 C   0  0  2  0  0  0  0  0  0  0  0  0
   -2.3323    2.0185   -1.5383 C   0  0  0  0  0  0  0  0  0  0  0  0
   -0.3095   -2.3004    0.7227 C   0  0  0  0  0  0  0  0  0  0  0  0
   -0.6649   -2.2353   -0.5729 C   0  0  0  0  0  0  0  0  0  0  0  0
   -1.3961   -2.3317    1.7500 C   0  0  0  0  0  0  0  0  0  0  0  0
   -2.7800   -2.1309    1.2587 C   0  0  0  0  0  0  0  0  0  0  0  0
    0.3317   -2.1435   -1.6555 C   0  0  0  0  0  0  0  0  0  0  0  0
   -2.9798   -2.0691   -0.1201 C   0  0  0  0  0  0  0  0  0  0  0  0
   -3.8901   -2.0098    2.1096 C   0  0  0  0  0  0  0  0  0  0  0  0
   -4.2612   -1.9022   -0.6492 C   0  0  0  0  0  0  0  0  0  0  0  0
    0.3127   -1.0224   -2.4981 C   0  0  0  0  0  0  0  0  0  0  0  0
    1.2966   -3.1426   -1.8646 C   0  0  0  0  0  0  0  0  0  0  0  0
   -5.1767   -1.8414    1.5855 C   0  0  0  0  0  0  0  0  0  0  0  0
   -5.3483   -1.7909    0.2066 C   0  0  0  0  0  0  0  0  0  0  0  0
    1.2540   -0.9015   -3.5113 C   0  0  0  0  0  0  0  0  0  0  0  0
    2.2317   -3.0217   -2.8973 C   0  0  0  0  0  0  0  0  0  0  0  0
    2.2014   -1.8997   -3.7122 C   0  0  0  0  0  0  0  0  0  0  0  0
    0.6652    0.5842    3.7193 H   0  0  0  0  0  0  0  0  0  0  0  0
    2.9440    1.6321    1.9178 H   0  0  0  0  0  0  0  0  0  0  0  0
    3.1323   -0.4641    4.1265 H   0  0  0  0  0  0  0  0  0  0  0  0
    3.2839   -0.9691    1.1025 H   0  0  0  0  0  0  0  0  0  0  0  0
    1.7200    5.0448    0.1108 H   0  0  0  0  0  0  0  0  0  0  0  0
   -0.3106    4.4903    1.5275 H   0  0  0  0  0  0  0  0  0  0  0  0
    1.7982    3.0940   -1.3786 H   0  0  0  0  0  0  0  0  0  0  0  0
   -0.8530    4.0588   -2.5596 H   0  0  0  0  0  0  0  0  0  0  0  0
    1.0373   -1.6889    3.0672 H   0  0  0  0  0  0  0  0  0  0  0  0
   -0.7832    1.9266    2.2072 H   0  0  0  0  0  0  0  0  0  0  0  0
    0.3247    2.9325    3.1817 H   0  0  0  0  0  0  0  0  0  0  0  0
   -0.4023    1.6290   -0.7245 H   0  0  0  0  0  0  0  0  0  0  0  0
   -2.8514    1.4780   -0.7391 H   0  0  0  0  0  0  0  0  0  0  0  0
   -2.2386    1.3540   -2.4016 H   0  0  0  0  0  0  0  0  0  0  0  0
   -2.9749    2.8620   -1.8142 H   0  0  0  0  0  0  0  0  0  0  0  0
    2.6039    1.7282    4.7497 H   0  0  0  0  0  0  0  0  0  0  0  0
    4.9025    0.9703    3.4239 H   0  0  0  0  0  0  0  0  0  0  0  0
    4.5026   -2.2097    2.5693 H   0  0  0  0  0  0  0  0  0  0  0  0
   -0.9188    5.6508   -0.6198 H   0  0  0  0  0  0  0  0  0  0  0  0
    1.3005    5.6247   -2.4216 H   0  0  0  0  0  0  0  0  0  0  0  0
    0.7430    2.9797   -3.7877 H   0  0  0  0  0  0  0  0  0  0  0  0
   -4.4088   -1.8582   -1.7251 H   0  0  0  0  0  0  0  0  0  0  0  0
   -0.4333   -0.2498   -2.3524 H   0  0  0  0  0  0  0  0  0  0  0  0
    1.3299   -4.0190   -1.2206 H   0  0  0  0  0  0  0  0  0  0  0  0
   -6.0307   -1.7408    2.2468 H   0  0  0  0  0  0  0  0  0  0  0  0
    2.9790   -3.7927   -3.0575 H   0  0  0  0  0  0  0  0  0  0  0  0
   -4.6003   -2.1075    3.9066 H   0  0  0  0  0  0  0  0  0  0  0  0
   -7.2522   -1.5816    0.3449 H   0  0  0  0  0  0  0  0  0  0  0  0
    0.6762    0.8667   -3.9450 H   0  0  0  0  0  0  0  0  0  0  0  0
    2.8952   -0.9222   -5.1403 H   0  0  0  0  0  0  0  0  0  0  0  0
  1 17  1  0  0  0  0
  1 25  1  0  0  0  0
  2 22  1  0  0  0  0
  2 26  1  0  0  0  0
  3 22  1  0  0  0  0
  3 27  1  0  0  0  0
  4 18  1  0  0  0  0
  4 59  1  0  0  0  0
  5 19  1  0  0  0  0
  5 60  1  0  0  0  0
  6 25  1  0  0  0  0
  6 29  1  0  0  0  0
  7 20  1  0  0  0  0
  7 61  1  0  0  0  0
  8 21  1  0  0  0  0
  8 62  1  0  0  0  0
  9 23  1  0  0  0  0
  9 63  1  0  0  0  0
 10 24  1  0  0  0  0
 10 64  1  0  0  0  0
 11 30  1  0  0  0  0
 11 34  1  0  0  0  0
 12 31  2  0  0  0  0
 13 35  1  0  0  0  0
 13 70  1  0  0  0  0
 14 40  1  0  0  0  0
 14 71  1  0  0  0  0
 15 41  1  0  0  0  0
 15 72  1  0  0  0  0
 16 43  1  0  0  0  0
 16 73  1  0  0  0  0
 17 18  1  1  0  0  0
 17 26  1  0  0  0  0
 17 44  1  0  0  0  0
 18 19  1  1  0  0  0
 18 45  1  0  0  0  0
 19 20  1  6  0  0  0
 19 46  1  0  0  0  0
 20 25  1  6  0  0  0
 20 47  1  0  0  0  0
 21 22  1  1  0  0  0
 21 48  1  0  0  0  0
 22 49  1  1  0  0  0
 23 21  1  1  0  0  0
 23 50  1  0  0  0  0
 24 23  1  1  0  0  0
 24 51  1  0  0  0  0
 25 52  1  1  0  0  0
 26 53  1  0  0  0  0
 26 54  1  0  0  0  0
 27 24  1  6  0  0  0
 27 28  1  0  0  0  0
 27 55  1  0  0  0  0
 28 56  1  0  0  0  0
 28 57  1  0  0  0  0
 28 58  1  0  0  0  0
 29 30  2  0  0  0  0
 29 31  1  0  0  0  0
 30 33  1  0  0  0  0
 31 32  1  0  0  0  0
 32 34  1  0  0  0  0
 32 35  2  0  0  0  0
 33 37  2  0  0  0  0
 33 38  1  0  0  0  0
 34 36  2  0  0  0  0
 35 39  1  0  0  0  0
 36 40  1  0  0  0  0
 36 65  1  0  0  0  0
 37 41  1  0  0  0  0
 37 66  1  0  0  0  0
 38 42  2  0  0  0  0
 38 67  1  0  0  0  0
 39 40  2  0  0  0  0
 39 68  1  0  0  0  0
 41 43  2  0  0  0  0
 42 43  1  0  0  0  0
 42 69  1  0  0  0  0
M  END
