
 OpenBabel11132207443D

 57 59  0  0  0  0  0  0  0  0999 V2000
   -6.7665   -1.0689   -0.8721 S   0  0  0  0  0  0  0  0  0  0  0  0
    2.0282   -1.3545    2.3270 O   0  0  0  0  0  0  0  0  0  0  0  0
    2.6909   -2.3971   -1.1820 O   0  0  0  0  0  0  0  0  0  0  0  0
   -1.8593    0.1423    0.0660 N   0  0  0  0  0  0  0  0  0  0  0  0
    2.4240   -0.3168   -0.3228 N   0  0  0  0  0  0  0  0  0  0  0  0
    1.0591   -0.5975    0.2278 C   0  0  0  0  0  0  0  0  0  0  0  0
    0.4163    0.6770    0.8815 C   0  0  0  0  0  0  0  0  0  0  0  0
    0.1062   -0.9834   -0.9464 C   0  0  0  0  0  0  0  0  0  0  0  0
   -1.0620    0.4928    1.2585 C   0  0  0  0  0  0  0  0  0  0  0  0
   -1.3650   -1.1226   -0.5203 C   0  0  0  0  0  0  0  0  0  0  0  0
    1.1463   -1.7386    1.2922 C   0  0  0  0  0  0  0  0  0  0  0  0
   -3.2941    0.0653    0.4235 C   0  0  0  0  0  0  0  0  0  0  0  0
    3.0115    0.9857   -0.1688 C   0  0  0  0  0  0  0  0  0  0  0  0
    3.1511   -1.2783   -1.0081 C   0  0  0  0  0  0  0  0  0  0  0  0
   -4.1987    0.1088   -0.8194 C   0  0  0  0  0  0  0  0  0  0  0  0
    4.5562   -1.0045   -1.5341 C   0  0  0  0  0  0  0  0  0  0  0  0
    3.1833    1.8197   -1.2885 C   0  0  0  0  0  0  0  0  0  0  0  0
    3.4233    1.4489    1.0940 C   0  0  0  0  0  0  0  0  0  0  0  0
   -5.6490    0.1114   -0.4362 C   0  0  0  0  0  0  0  0  0  0  0  0
    2.1254   -2.3897    3.2784 C   0  0  0  0  0  0  0  0  0  0  0  0
    5.2055   -2.2193   -2.2001 C   0  0  0  0  0  0  0  0  0  0  0  0
    3.7518    3.0886   -1.1472 C   0  0  0  0  0  0  0  0  0  0  0  0
    3.9930    2.7182    1.2311 C   0  0  0  0  0  0  0  0  0  0  0  0
   -6.2966    1.0821    0.3197 C   0  0  0  0  0  0  0  0  0  0  0  0
    4.1566    3.5376    0.1119 C   0  0  0  0  0  0  0  0  0  0  0  0
   -7.6573    0.8153    0.5072 C   0  0  0  0  0  0  0  0  0  0  0  0
   -8.0818   -0.3591   -0.0997 C   0  0  0  0  0  0  0  0  0  0  0  0
    0.9646    0.9864    1.7936 H   0  0  0  0  0  0  0  0  0  0  0  0
    0.4486    1.5170    0.1518 H   0  0  0  0  0  0  0  0  0  0  0  0
    0.1557   -0.1829   -1.7185 H   0  0  0  0  0  0  0  0  0  0  0  0
    0.4053   -1.9325   -1.4311 H   0  0  0  0  0  0  0  0  0  0  0  0
   -1.1872   -0.2680    2.0584 H   0  0  0  0  0  0  0  0  0  0  0  0
   -1.4158    1.4622    1.6748 H   0  0  0  0  0  0  0  0  0  0  0  0
   -1.9323   -1.3729   -1.4385 H   0  0  0  0  0  0  0  0  0  0  0  0
   -1.4945   -1.9676    0.1902 H   0  0  0  0  0  0  0  0  0  0  0  0
    1.5018   -2.6760    0.8183 H   0  0  0  0  0  0  0  0  0  0  0  0
    0.1463   -1.9625    1.7135 H   0  0  0  0  0  0  0  0  0  0  0  0
   -3.5036   -0.8472    1.0271 H   0  0  0  0  0  0  0  0  0  0  0  0
   -3.5631    0.9500    1.0435 H   0  0  0  0  0  0  0  0  0  0  0  0
   -3.9827    1.0272   -1.4062 H   0  0  0  0  0  0  0  0  0  0  0  0
   -4.0165   -0.7731   -1.4641 H   0  0  0  0  0  0  0  0  0  0  0  0
    4.5290   -0.1919   -2.2865 H   0  0  0  0  0  0  0  0  0  0  0  0
    5.2011   -0.6920   -0.6848 H   0  0  0  0  0  0  0  0  0  0  0  0
    2.8661    1.4870   -2.2689 H   0  0  0  0  0  0  0  0  0  0  0  0
    3.3130    0.8270    1.9708 H   0  0  0  0  0  0  0  0  0  0  0  0
    2.8192   -2.0619    4.0793 H   0  0  0  0  0  0  0  0  0  0  0  0
    2.5578   -3.3119    2.8307 H   0  0  0  0  0  0  0  0  0  0  0  0
    1.1432   -2.5901    3.7610 H   0  0  0  0  0  0  0  0  0  0  0  0
    4.6043   -2.5476   -3.0749 H   0  0  0  0  0  0  0  0  0  0  0  0
    5.2907   -3.0574   -1.4759 H   0  0  0  0  0  0  0  0  0  0  0  0
    6.2242   -1.9509   -2.5517 H   0  0  0  0  0  0  0  0  0  0  0  0
    3.8770    3.7245   -2.0140 H   0  0  0  0  0  0  0  0  0  0  0  0
    4.3092    3.0660    2.2061 H   0  0  0  0  0  0  0  0  0  0  0  0
   -5.8048    1.9575    0.7229 H   0  0  0  0  0  0  0  0  0  0  0  0
    4.5972    4.5203    0.2202 H   0  0  0  0  0  0  0  0  0  0  0  0
   -8.3161    1.4630    1.0698 H   0  0  0  0  0  0  0  0  0  0  0  0
   -9.0904   -0.7491   -0.0794 H   0  0  0  0  0  0  0  0  0  0  0  0
  1 19  1  0  0  0  0
  1 27  1  0  0  0  0
  2 11  1  0  0  0  0
  2 20  1  0  0  0  0
  3 14  2  0  0  0  0
  4  9  1  0  0  0  0
  4 10  1  0  0  0  0
  4 12  1  0  0  0  0
  5  6  1  0  0  0  0
  5 13  1  0  0  0  0
  5 14  1  0  0  0  0
  6  7  1  0  0  0  0
  6  8  1  0  0  0  0
  6 11  1  0  0  0  0
  7  9  1  0  0  0  0
  7 28  1  0  0  0  0
  7 29  1  0  0  0  0
  8 10  1  0  0  0  0
  8 30  1  0  0  0  0
  8 31  1  0  0  0  0
  9 32  1  0  0  0  0
  9 33  1  0  0  0  0
 10 34  1  0  0  0  0
 10 35  1  0  0  0  0
 11 36  1  0  0  0  0
 11 37  1  0  0  0  0
 12 15  1  0  0  0  0
 12 38  1  0  0  0  0
 12 39  1  0  0  0  0
 13 17  2  0  0  0  0
 13 18  1  0  0  0  0
 14 16  1  0  0  0  0
 15 19  1  0  0  0  0
 15 40  1  0  0  0  0
 15 41  1  0  0  0  0
 16 21  1  0  0  0  0
 16 42  1  0  0  0  0
 16 43  1  0  0  0  0
 17 22  1  0  0  0  0
 17 44  1  0  0  0  0
 18 23  2  0  0  0  0
 18 45  1  0  0  0  0
 19 24  2  0  0  0  0
 20 46  1  0  0  0  0
 20 47  1  0  0  0  0
 20 48  1  0  0  0  0
 21 49  1  0  0  0  0
 21 50  1  0  0  0  0
 21 51  1  0  0  0  0
 22 25  2  0  0  0  0
 22 52  1  0  0  0  0
 23 25  1  0  0  0  0
 23 53  1  0  0  0  0
 24 26  1  0  0  0  0
 24 54  1  0  0  0  0
 25 55  1  0  0  0  0
 26 27  2  0  0  0  0
 26 56  1  0  0  0  0
 27 57  1  0  0  0  0
M  END
