
 OpenBabel09142118013D

 42 44  0  0  1  0  0  0  0  0999 V2000
   -3.4382    5.8734    0.5087 S   0  0  1  0  0  0  0  0  0  0  0  0
   -2.4438   -3.9419   -1.2100 F   0  0  0  0  0  0  0  0  0  0  0  0
    2.3565   -5.0207    0.0615 O   0  0  0  0  0  0  0  0  0  0  0  0
    2.9494   -3.3085    1.3597 O   0  0  0  0  0  0  0  0  0  0  0  0
   -3.7890    5.3776    1.9217 O   0  0  0  0  0  0  0  0  0  0  0  0
    1.9448   -1.6592   -0.8709 C   0  0  0  0  0  0  0  0  0  0  0  0
    0.4833   -1.7858   -0.8909 C   0  0  0  0  0  0  0  0  0  0  0  0
    2.2544   -0.3469   -0.7972 C   0  0  0  0  0  0  0  0  0  0  0  0
    1.0014    0.4547   -0.7041 C   0  0  0  0  0  0  0  0  0  0  0  0
   -0.0992   -0.5328   -0.8201 C   0  0  0  0  0  0  0  0  0  0  0  0
    2.8952   -2.8356   -0.9543 C   0  0  0  0  0  0  0  0  0  0  0  0
    1.0071    1.8057   -0.5520 C   0  0  0  0  0  0  0  0  0  0  0  0
   -0.2833   -2.9488   -1.0148 C   0  0  0  0  0  0  0  0  0  0  0  0
   -1.4946   -0.4061   -0.9332 C   0  0  0  0  0  0  0  0  0  0  0  0
    3.6392    0.2559   -0.7638 C   0  0  0  0  0  0  0  0  0  0  0  0
   -0.1186    2.7396   -0.2930 C   0  0  0  0  0  0  0  0  0  0  0  0
   -1.6766   -2.8313   -1.0834 C   0  0  0  0  0  0  0  0  0  0  0  0
   -2.2784   -1.5637   -1.0530 C   0  0  0  0  0  0  0  0  0  0  0  0
    2.7313   -3.7356    0.2353 C   0  0  0  0  0  0  0  0  0  0  0  0
   -0.0202    4.0566   -0.7711 C   0  0  0  0  0  0  0  0  0  0  0  0
   -1.2326    2.3893    0.4865 C   0  0  0  0  0  0  0  0  0  0  0  0
   -2.1614    4.6219    0.2242 C   0  0  0  0  0  0  0  0  0  0  0  0
   -1.0366    4.9837   -0.5244 C   0  0  0  0  0  0  0  0  0  0  0  0
   -2.2486    3.3159    0.7371 C   0  0  0  0  0  0  0  0  0  0  0  0
   -4.7807    4.9354   -0.2998 C   0  0  0  0  0  0  0  0  0  0  0  0
    2.6819   -3.3965   -1.8891 H   0  0  0  0  0  0  0  0  0  0  0  0
    3.9548   -2.5280   -0.9921 H   0  0  0  0  0  0  0  0  0  0  0  0
    1.9717    2.3004   -0.6054 H   0  0  0  0  0  0  0  0  0  0  0  0
    0.1810   -3.9231   -1.0736 H   0  0  0  0  0  0  0  0  0  0  0  0
   -1.9969    0.5422   -0.9587 H   0  0  0  0  0  0  0  0  0  0  0  0
    3.7551    0.9526   -1.6199 H   0  0  0  0  0  0  0  0  0  0  0  0
    3.7703    0.8195    0.1833 H   0  0  0  0  0  0  0  0  0  0  0  0
    4.4553   -0.4842   -0.8244 H   0  0  0  0  0  0  0  0  0  0  0  0
   -3.3543   -1.4772   -1.1357 H   0  0  0  0  0  0  0  0  0  0  0  0
    0.8419    4.3661   -1.3498 H   0  0  0  0  0  0  0  0  0  0  0  0
   -1.3106    1.4089    0.9334 H   0  0  0  0  0  0  0  0  0  0  0  0
   -0.9450    5.9891   -0.9158 H   0  0  0  0  0  0  0  0  0  0  0  0
   -3.0936    3.0111    1.3398 H   0  0  0  0  0  0  0  0  0  0  0  0
    2.2473   -5.6207    0.8128 H   0  0  0  0  0  0  0  0  0  0  0  0
   -5.6993    5.5573   -0.3079 H   0  0  0  0  0  0  0  0  0  0  0  0
   -4.4992    4.7192   -1.3515 H   0  0  0  0  0  0  0  0  0  0  0  0
   -4.9978    3.9797    0.2217 H   0  0  0  0  0  0  0  0  0  0  0  0
  1  5  2  1  0  0  0
  1 22  1  0  0  0  0
  1 25  1  0  0  0  0
  2 17  1  0  0  0  0
  3 19  1  0  0  0  0
  3 39  1  0  0  0  0
  4 19  2  0  0  0  0
  6  7  1  0  0  0  0
  6  8  2  0  0  0  0
  6 11  1  0  0  0  0
  7 10  2  0  0  0  0
  7 13  1  0  0  0  0
  8  9  1  0  0  0  0
  8 15  1  0  0  0  0
  9 10  1  0  0  0  0
  9 12  2  0  0  0  0
 10 14  1  0  0  0  0
 11 19  1  0  0  0  0
 11 26  1  0  0  0  0
 11 27  1  0  0  0  0
 12 16  1  0  0  0  0
 12 28  1  0  0  0  0
 13 17  2  0  0  0  0
 13 29  1  0  0  0  0
 14 18  2  0  0  0  0
 14 30  1  0  0  0  0
 15 31  1  0  0  0  0
 15 32  1  0  0  0  0
 15 33  1  0  0  0  0
 16 20  2  0  0  0  0
 16 21  1  0  0  0  0
 17 18  1  0  0  0  0
 18 34  1  0  0  0  0
 20 23  1  0  0  0  0
 20 35  1  0  0  0  0
 21 24  2  0  0  0  0
 21 36  1  0  0  0  0
 22 23  2  0  0  0  0
 22 24  1  0  0  0  0
 23 37  1  0  0  0  0
 24 38  1  0  0  0  0
 25 40  1  0  0  0  0
 25 41  1  0  0  0  0
 25 42  1  0  0  0  0
M  END
