
 OpenBabel07152417563D

 69 72  0  0  1  0  0  0  0  0999 V2000
   -0.4435   -0.9902   -0.0086 O   0  0  0  0  0  0  0  0  0  0  0  0
    3.6431   -0.9703   -0.3363 O   0  0  0  0  0  0  0  0  0  0  0  0
    2.2304   -3.4569   -0.5645 O   0  0  0  0  0  0  0  0  0  0  0  0
    1.9386    1.2999   -1.6070 O   0  0  0  0  0  0  0  0  0  0  0  0
   -0.6140    1.3113   -0.3332 O   0  0  0  0  0  0  0  0  0  0  0  0
   -1.9719   -3.3079   -0.0740 O   0  0  0  0  0  0  0  0  0  0  0  0
    4.3703    0.3154   -2.0704 O   0  0  0  0  0  0  0  0  0  0  0  0
   -2.5040    0.8877   -1.5875 O   0  0  0  0  0  0  0  0  0  0  0  0
   -2.7517   -3.8284    2.0253 O   0  0  0  0  0  0  0  0  0  0  0  0
    9.2890    0.9405   -0.8856 O   0  0  0  0  0  0  0  0  0  0  0  0
    7.7071   -2.2467    2.2539 O   0  0  0  0  0  0  0  0  0  0  0  0
    9.7166   -0.7643    1.2461 O   0  0  0  0  0  0  0  0  0  0  0  0
   -5.6084    4.2567    0.7512 O   0  0  0  0  0  0  0  0  0  0  0  0
   -1.2245    6.0271    1.1843 O   0  0  0  0  0  0  0  0  0  0  0  0
   -3.8848    6.2750    1.5266 O   0  0  0  0  0  0  0  0  0  0  0  0
   -7.6997   -2.5171    1.2691 O   0  0  0  0  0  0  0  0  0  0  0  0
   -5.1400    0.0027   -1.8540 O   0  0  0  0  0  0  0  0  0  0  0  0
   -7.5282   -0.5887   -0.7116 O   0  0  0  0  0  0  0  0  0  0  0  0
    2.2937   -1.0367   -0.8838 C   0  0  1  0  0  0  0  0  0  0  0  0
    1.6232   -2.2234   -0.1647 C   0  0  1  0  0  0  0  0  0  0  0  0
    0.1199   -2.2403   -0.4305 C   0  0  1  0  0  0  0  0  0  0  0  0
    1.5371    0.2902   -0.6621 C   0  0  2  0  0  0  0  0  0  0  0  0
    0.0088    0.1035   -0.8014 C   0  0  1  0  0  0  0  0  0  0  0  0
   -0.5920   -3.3700    0.3309 C   0  0  0  0  0  0  0  0  0  0  0  0
    4.5872   -0.3248   -1.0543 C   0  0  0  0  0  0  0  0  0  0  0  0
   -1.8526    1.5667   -0.8075 C   0  0  0  0  0  0  0  0  0  0  0  0
    5.9246   -0.4626   -0.4221 C   0  0  0  0  0  0  0  0  0  0  0  0
   -2.8965   -3.3574    0.9113 C   0  0  0  0  0  0  0  0  0  0  0  0
   -2.3647    2.8117   -0.1834 C   0  0  0  0  0  0  0  0  0  0  0  0
   -4.1290   -2.6769    0.4424 C   0  0  0  0  0  0  0  0  0  0  0  0
    6.1501   -1.3313    0.6581 C   0  0  0  0  0  0  0  0  0  0  0  0
    6.9804    0.3019   -0.9479 C   0  0  0  0  0  0  0  0  0  0  0  0
   -1.4932    3.8391    0.2119 C   0  0  0  0  0  0  0  0  0  0  0  0
   -3.7517    2.9495   -0.0117 C   0  0  0  0  0  0  0  0  0  0  0  0
    8.2530    0.2031   -0.3889 C   0  0  0  0  0  0  0  0  0  0  0  0
    7.4273   -1.4170    1.2018 C   0  0  0  0  0  0  0  0  0  0  0  0
   -4.0557   -1.6991   -0.5605 C   0  0  0  0  0  0  0  0  0  0  0  0
   -5.3504   -2.9520    1.0716 C   0  0  0  0  0  0  0  0  0  0  0  0
    8.4741   -0.6540    0.6850 C   0  0  0  0  0  0  0  0  0  0  0  0
   -4.2636    4.1093    0.5664 C   0  0  0  0  0  0  0  0  0  0  0  0
   -2.0234    4.9911    0.7816 C   0  0  0  0  0  0  0  0  0  0  0  0
   -3.4002    5.1280    0.9600 C   0  0  0  0  0  0  0  0  0  0  0  0
   -6.4964   -2.2598    0.6755 C   0  0  0  0  0  0  0  0  0  0  0  0
   -5.1968   -1.0008   -0.9240 C   0  0  0  0  0  0  0  0  0  0  0  0
   -6.4189   -1.2876   -0.3220 C   0  0  0  0  0  0  0  0  0  0  0  0
    2.3767   -1.2584   -1.9563 H   0  0  0  0  0  0  0  0  0  0  0  0
    1.8039   -2.1240    0.9133 H   0  0  0  0  0  0  0  0  0  0  0  0
   -0.0853   -2.3765   -1.5013 H   0  0  0  0  0  0  0  0  0  0  0  0
    1.7786    0.6851    0.3321 H   0  0  0  0  0  0  0  0  0  0  0  0
   -0.2487   -0.0573   -1.8573 H   0  0  0  0  0  0  0  0  0  0  0  0
   -0.4849   -3.2247    1.4119 H   0  0  0  0  0  0  0  0  0  0  0  0
   -0.2008   -4.3523    0.0502 H   0  0  0  0  0  0  0  0  0  0  0  0
    2.2333   -3.5164   -1.5365 H   0  0  0  0  0  0  0  0  0  0  0  0
    2.8746    1.1555   -1.8613 H   0  0  0  0  0  0  0  0  0  0  0  0
    5.3424   -1.9337    1.0623 H   0  0  0  0  0  0  0  0  0  0  0  0
    6.7995    0.9679   -1.7879 H   0  0  0  0  0  0  0  0  0  0  0  0
   -0.4223    3.7369    0.0646 H   0  0  0  0  0  0  0  0  0  0  0  0
   -4.4202    2.1516   -0.3211 H   0  0  0  0  0  0  0  0  0  0  0  0
   -3.1068   -1.4682   -1.0331 H   0  0  0  0  0  0  0  0  0  0  0  0
   -5.3909   -3.6948    1.8635 H   0  0  0  0  0  0  0  0  0  0  0  0
    8.9858    1.4722   -1.6376 H   0  0  0  0  0  0  0  0  0  0  0  0
    6.8990   -2.7289    2.5014 H   0  0  0  0  0  0  0  0  0  0  0  0
    9.6152   -1.4166    1.9654 H   0  0  0  0  0  0  0  0  0  0  0  0
   -6.0690    3.4426    0.4924 H   0  0  0  0  0  0  0  0  0  0  0  0
   -0.2976    5.8009    0.9942 H   0  0  0  0  0  0  0  0  0  0  0  0
   -3.0969    6.8213    1.7090 H   0  0  0  0  0  0  0  0  0  0  0  0
   -7.5860   -3.1939    1.9543 H   0  0  0  0  0  0  0  0  0  0  0  0
   -4.1918    0.2147   -2.0126 H   0  0  0  0  0  0  0  0  0  0  0  0
   -7.2262   -0.0303   -1.4533 H   0  0  0  0  0  0  0  0  0  0  0  0
  1 21  1  0  0  0  0
  1 23  1  0  0  0  0
  2 19  1  0  0  0  0
  2 25  1  0  0  0  0
  3 20  1  0  0  0  0
  3 53  1  0  0  0  0
  4 22  1  0  0  0  0
  4 54  1  0  0  0  0
  5 23  1  0  0  0  0
  5 26  1  0  0  0  0
  6 24  1  0  0  0  0
  6 28  1  0  0  0  0
  7 25  2  0  0  0  0
  8 26  2  0  0  0  0
  9 28  2  0  0  0  0
 10 35  1  0  0  0  0
 10 61  1  0  0  0  0
 11 36  1  0  0  0  0
 11 62  1  0  0  0  0
 12 39  1  0  0  0  0
 12 63  1  0  0  0  0
 13 40  1  0  0  0  0
 13 64  1  0  0  0  0
 14 41  1  0  0  0  0
 14 65  1  0  0  0  0
 15 42  1  0  0  0  0
 15 66  1  0  0  0  0
 16 43  1  0  0  0  0
 16 67  1  0  0  0  0
 17 44  1  0  0  0  0
 17 68  1  0  0  0  0
 18 45  1  0  0  0  0
 18 69  1  0  0  0  0
 19 20  1  1  0  0  0
 19 46  1  0  0  0  0
 20 21  1  6  0  0  0
 20 47  1  0  0  0  0
 21 24  1  0  0  0  0
 21 48  1  6  0  0  0
 22 19  1  6  0  0  0
 22 49  1  0  0  0  0
 23 22  1  1  0  0  0
 23 50  1  0  0  0  0
 24 51  1  0  0  0  0
 24 52  1  0  0  0  0
 25 27  1  0  0  0  0
 26 29  1  0  0  0  0
 27 31  2  0  0  0  0
 27 32  1  0  0  0  0
 28 30  1  0  0  0  0
 29 33  2  0  0  0  0
 29 34  1  0  0  0  0
 30 37  2  0  0  0  0
 30 38  1  0  0  0  0
 31 36  1  0  0  0  0
 31 55  1  0  0  0  0
 32 35  2  0  0  0  0
 32 56  1  0  0  0  0
 33 41  1  0  0  0  0
 33 57  1  0  0  0  0
 34 40  2  0  0  0  0
 34 58  1  0  0  0  0
 35 39  1  0  0  0  0
 36 39  2  0  0  0  0
 37 44  1  0  0  0  0
 37 59  1  0  0  0  0
 38 43  2  0  0  0  0
 38 60  1  0  0  0  0
 40 42  1  0  0  0  0
 41 42  2  0  0  0  0
 43 45  1  0  0  0  0
 44 45  2  0  0  0  0
M  END
