
 OpenBabel09152115113D

 43 44  0  0  1  0  0  0  0  0999 V2000
    5.9219    1.6929   -1.3820 Cl  0  0  0  0  0  0  0  0  0  0  0  0
    0.8989   -4.6240    2.4418 O   0  0  0  0  0  0  0  0  0  0  0  0
   -0.3132   -2.0943    2.9102 N   0  0  0  0  0  0  0  0  0  0  0  0
    0.2322   -2.4374    4.0645 N   0  0  0  0  0  0  0  0  0  0  0  0
    0.1532   -0.2086    3.9677 N   0  0  0  0  0  0  0  0  0  0  0  0
    0.3701   -3.9300    1.3296 C   0  0  2  0  0  0  0  0  0  0  0  0
   -0.1983   -5.0167    0.2868 C   0  0  0  0  0  0  0  0  0  0  0  0
    1.5284   -2.9992    0.7933 C   0  0  0  0  0  0  0  0  0  0  0  0
   -0.7839   -3.0352    1.8906 C   0  0  0  0  0  0  0  0  0  0  0  0
   -1.1567   -4.4319   -0.7874 C   0  0  0  0  0  0  0  0  0  0  0  0
    0.9569   -5.7406   -0.4488 C   0  0  0  0  0  0  0  0  0  0  0  0
   -1.0134   -6.1061    1.0385 C   0  0  0  0  0  0  0  0  0  0  0  0
    1.2360   -2.0423   -0.3774 C   0  0  0  0  0  0  0  0  0  0  0  0
    2.4034   -1.1159   -0.6256 C   0  0  0  0  0  0  0  0  0  0  0  0
   -0.3647   -0.7518    2.8512 C   0  0  0  0  0  0  0  0  0  0  0  0
    2.2520    0.2737   -0.4722 C   0  0  0  0  0  0  0  0  0  0  0  0
    3.6528   -1.6280   -1.0199 C   0  0  0  0  0  0  0  0  0  0  0  0
    0.5142   -1.2832    4.6993 C   0  0  0  0  0  0  0  0  0  0  0  0
    3.3310    1.1323   -0.7034 C   0  0  0  0  0  0  0  0  0  0  0  0
    4.7293   -0.7663   -1.2506 C   0  0  0  0  0  0  0  0  0  0  0  0
    4.5700    0.6137   -1.0919 C   0  0  0  0  0  0  0  0  0  0  0  0
    2.4064   -3.6226    0.5250 H   0  0  0  0  0  0  0  0  0  0  0  0
    1.8639   -2.3697    1.6465 H   0  0  0  0  0  0  0  0  0  0  0  0
   -1.2557   -2.4586    1.0701 H   0  0  0  0  0  0  0  0  0  0  0  0
   -1.5751   -3.6584    2.3519 H   0  0  0  0  0  0  0  0  0  0  0  0
   -1.5129   -5.2383   -1.4652 H   0  0  0  0  0  0  0  0  0  0  0  0
   -2.0651   -3.9912   -0.3283 H   0  0  0  0  0  0  0  0  0  0  0  0
   -0.6990   -3.6740   -1.4352 H   0  0  0  0  0  0  0  0  0  0  0  0
    1.5431   -5.0347   -1.0720 H   0  0  0  0  0  0  0  0  0  0  0  0
    0.5595   -6.5206   -1.1342 H   0  0  0  0  0  0  0  0  0  0  0  0
    1.6442   -6.2465    0.2595 H   0  0  0  0  0  0  0  0  0  0  0  0
   -0.3912   -6.6324    1.7929 H   0  0  0  0  0  0  0  0  0  0  0  0
   -1.9008   -5.6844    1.5510 H   0  0  0  0  0  0  0  0  0  0  0  0
   -1.3867   -6.8789    0.3312 H   0  0  0  0  0  0  0  0  0  0  0  0
    0.3361   -1.4389   -0.1430 H   0  0  0  0  0  0  0  0  0  0  0  0
    1.0698   -2.5988   -1.3147 H   0  0  0  0  0  0  0  0  0  0  0  0
    1.7338   -5.0872    2.1743 H   0  0  0  0  0  0  0  0  0  0  0  0
   -0.7643   -0.1819    2.0224 H   0  0  0  0  0  0  0  0  0  0  0  0
    1.3007    0.6950   -0.1715 H   0  0  0  0  0  0  0  0  0  0  0  0
    3.7943   -2.6931   -1.1523 H   0  0  0  0  0  0  0  0  0  0  0  0
    0.9729   -1.2252    5.6770 H   0  0  0  0  0  0  0  0  0  0  0  0
    3.2025    2.2001   -0.5803 H   0  0  0  0  0  0  0  0  0  0  0  0
    5.6860   -1.1724   -1.5536 H   0  0  0  0  0  0  0  0  0  0  0  0
  1 21  1  0  0  0  0
  2 37  1  0  0  0  0
  3  4  1  0  0  0  0
  3  9  1  0  0  0  0
  3 15  1  0  0  0  0
  4 18  2  0  0  0  0
  5 15  2  0  0  0  0
  5 18  1  0  0  0  0
  6  2  1  1  0  0  0
  6  7  1  0  0  0  0
  6  8  1  0  0  0  0
  6  9  1  0  0  0  0
  7 10  1  0  0  0  0
  7 11  1  0  0  0  0
  7 12  1  0  0  0  0
  8 13  1  0  0  0  0
  8 22  1  0  0  0  0
  8 23  1  0  0  0  0
  9 24  1  0  0  0  0
  9 25  1  0  0  0  0
 10 26  1  0  0  0  0
 10 27  1  0  0  0  0
 10 28  1  0  0  0  0
 11 29  1  0  0  0  0
 11 30  1  0  0  0  0
 11 31  1  0  0  0  0
 12 32  1  0  0  0  0
 12 33  1  0  0  0  0
 12 34  1  0  0  0  0
 13 14  1  0  0  0  0
 13 35  1  0  0  0  0
 13 36  1  0  0  0  0
 14 16  2  0  0  0  0
 14 17  1  0  0  0  0
 15 38  1  0  0  0  0
 16 19  1  0  0  0  0
 16 39  1  0  0  0  0
 17 20  2  0  0  0  0
 17 40  1  0  0  0  0
 18 41  1  0  0  0  0
 19 21  2  0  0  0  0
 19 42  1  0  0  0  0
 20 21  1  0  0  0  0
 20 43  1  0  0  0  0
M  END
