
 OpenBabel09152117343D

 49 52  0  0  1  0  0  0  0  0999 V2000
   -2.7055    2.9843    2.1822 O   0  0  0  0  0  0  0  0  0  0  0  0
    2.4140    5.7190   -6.6697 O   0  0  0  0  0  0  0  0  0  0  0  0
   -0.2718    2.5340   -0.4946 C   0  0  2  0  0  0  0  0  0  0  0  0
   -1.7128    2.8936   -0.0907 C   0  0  2  0  0  0  0  0  0  0  0  0
   -0.0985    2.3841   -2.0228 C   0  0  1  0  0  0  0  0  0  0  0  0
   -0.5015    3.7410   -2.7057 C   0  0  1  0  0  0  0  0  0  0  0  0
   -0.2992    3.7106   -4.2737 C   0  0  2  0  0  0  0  0  0  0  0  0
   -2.0651    4.2578   -0.7268 C   0  0  0  0  0  0  0  0  0  0  0  0
   -1.9301    4.1980   -2.2647 C   0  0  0  0  0  0  0  0  0  0  0  0
   -1.5192    2.9351    1.4353 C   0  0  2  0  0  0  0  0  0  0  0  0
    0.0582    1.3483    0.4133 C   0  0  0  0  0  0  0  0  0  0  0  0
    1.3660    2.0343   -2.3668 C   0  0  0  0  0  0  0  0  0  0  0  0
   -0.6821    1.6722    1.7353 C   0  0  0  0  0  0  0  0  0  0  0  0
    1.1212    3.1760   -4.5576 C   0  0  0  0  0  0  0  0  0  0  0  0
    1.5437    1.8943   -3.8754 C   0  0  0  0  0  0  0  0  0  0  0  0
   -2.7906    1.8251   -0.4718 C   0  0  0  0  0  0  0  0  0  0  0  0
   -0.4696    5.1773   -4.8159 C   0  0  0  0  0  0  0  0  0  0  0  0
   -1.3124    2.7670   -4.9734 C   0  0  0  0  0  0  0  0  0  0  0  0
    0.1204    5.3478   -6.2093 C   0  0  0  0  0  0  0  0  0  0  0  0
    1.9888    3.8123   -5.3772 C   0  0  0  0  0  0  0  0  0  0  0  0
    1.5792    5.0143   -6.1246 C   0  0  0  0  0  0  0  0  0  0  0  0
    0.4020    3.3661   -0.1694 H   0  0  0  0  0  0  0  0  0  0  0  0
   -0.7502    1.5609   -2.3801 H   0  0  0  0  0  0  0  0  0  0  0  0
    0.2091    4.5007   -2.3037 H   0  0  0  0  0  0  0  0  0  0  0  0
   -1.3580    5.0334   -0.3567 H   0  0  0  0  0  0  0  0  0  0  0  0
   -3.0904    4.5748   -0.4376 H   0  0  0  0  0  0  0  0  0  0  0  0
   -2.6978    3.5147   -2.6716 H   0  0  0  0  0  0  0  0  0  0  0  0
   -2.1534    5.2104   -2.6580 H   0  0  0  0  0  0  0  0  0  0  0  0
   -0.8689    3.8087    1.6890 H   0  0  0  0  0  0  0  0  0  0  0  0
    1.1421    1.1384    0.5319 H   0  0  0  0  0  0  0  0  0  0  0  0
   -0.4077    0.4422   -0.0317 H   0  0  0  0  0  0  0  0  0  0  0  0
    1.6529    1.0739   -1.8874 H   0  0  0  0  0  0  0  0  0  0  0  0
    2.0470    2.8298   -1.9898 H   0  0  0  0  0  0  0  0  0  0  0  0
   -0.0088    1.8599    2.5993 H   0  0  0  0  0  0  0  0  0  0  0  0
   -1.3299    0.8004    1.9759 H   0  0  0  0  0  0  0  0  0  0  0  0
    0.9098    1.0581   -4.2377 H   0  0  0  0  0  0  0  0  0  0  0  0
    2.5996    1.6300   -4.1034 H   0  0  0  0  0  0  0  0  0  0  0  0
   -2.6053    0.8340   -0.0149 H   0  0  0  0  0  0  0  0  0  0  0  0
   -3.7884    2.1584   -0.1155 H   0  0  0  0  0  0  0  0  0  0  0  0
   -2.8673    1.6553   -1.5615 H   0  0  0  0  0  0  0  0  0  0  0  0
    0.0792    5.8906   -4.1595 H   0  0  0  0  0  0  0  0  0  0  0  0
   -1.5386    5.4781   -4.8162 H   0  0  0  0  0  0  0  0  0  0  0  0
   -1.2674    1.7338   -4.5780 H   0  0  0  0  0  0  0  0  0  0  0  0
   -2.3525    3.1316   -4.8530 H   0  0  0  0  0  0  0  0  0  0  0  0
   -1.1122    2.7027   -6.0621 H   0  0  0  0  0  0  0  0  0  0  0  0
   -0.3807    4.6459   -6.9057 H   0  0  0  0  0  0  0  0  0  0  0  0
   -0.0254    6.3780   -6.6008 H   0  0  0  0  0  0  0  0  0  0  0  0
    3.0011    3.4399   -5.5083 H   0  0  0  0  0  0  0  0  0  0  0  0
   -3.0712    3.8993    2.0664 H   0  0  0  0  0  0  0  0  0  0  0  0
  1 10  1  0  0  0  0
  1 49  1  0  0  0  0
  2 21  2  0  0  0  0
  3  4  1  1  0  0  0
  3 11  1  0  0  0  0
  3 22  1  0  0  0  0
  4  8  1  0  0  0  0
  4 10  1  1  0  0  0
  4 16  1  0  0  0  0
  5  3  1  1  0  0  0
  5 12  1  0  0  0  0
  5 23  1  0  0  0  0
  6  5  1  1  0  0  0
  6  9  1  0  0  0  0
  6 24  1  0  0  0  0
  7  6  1  1  0  0  0
  7 14  1  0  0  0  0
  7 17  1  0  0  0  0
  7 18  1  0  0  0  0
  8  9  1  0  0  0  0
  8 25  1  0  0  0  0
  8 26  1  0  0  0  0
  9 27  1  0  0  0  0
  9 28  1  0  0  0  0
 10 13  1  0  0  0  0
 10 29  1  1  0  0  0
 11 13  1  0  0  0  0
 11 30  1  0  0  0  0
 11 31  1  0  0  0  0
 12 15  1  0  0  0  0
 12 32  1  0  0  0  0
 12 33  1  0  0  0  0
 13 34  1  0  0  0  0
 13 35  1  0  0  0  0
 14 15  1  0  0  0  0
 14 20  2  0  0  0  0
 15 36  1  0  0  0  0
 15 37  1  0  0  0  0
 16 38  1  0  0  0  0
 16 39  1  0  0  0  0
 16 40  1  0  0  0  0
 17 19  1  0  0  0  0
 17 41  1  0  0  0  0
 17 42  1  0  0  0  0
 18 43  1  0  0  0  0
 18 44  1  0  0  0  0
 18 45  1  0  0  0  0
 19 21  1  0  0  0  0
 19 46  1  0  0  0  0
 19 47  1  0  0  0  0
 20 21  1  0  0  0  0
 20 48  1  0  0  0  0
M  END
