
 OpenBabel11042216583D

 62 66  0  0  1  0  0  0  0  0999 V2000
    1.5745    0.3850   -1.1263 F   0  0  0  0  0  0  0  0  0  0  0  0
   -2.7201    0.5783   -1.0751 O   0  0  0  0  0  0  0  0  0  0  0  0
   -3.3718    2.1508    0.5064 O   0  0  0  0  0  0  0  0  0  0  0  0
    0.9525   -2.7328    0.5921 O   0  0  0  0  0  0  0  0  0  0  0  0
   -4.8206   -1.0007    0.9557 O   0  0  0  0  0  0  0  0  0  0  0  0
   -5.2671   -1.9729   -1.6423 O   0  0  0  0  0  0  0  0  0  0  0  0
    6.2781    1.1699   -1.7801 O   0  0  0  0  0  0  0  0  0  0  0  0
   -1.3590   -0.7220    0.4758 C   0  0  1  0  0  0  0  0  0  0  0  0
   -0.5604    0.5628    0.7762 C   0  0  2  0  0  0  0  0  0  0  0  0
    0.9149    0.3011    1.1752 C   0  0  1  0  0  0  0  0  0  0  0  0
   -2.7596   -0.0975    0.1542 C   0  0  1  0  0  0  0  0  0  0  0  0
    1.6364   -0.4497   -0.0138 C   0  0  1  0  0  0  0  0  0  0  0  0
   -2.8907    1.0335    1.1950 C   0  0  1  0  0  0  0  0  0  0  0  0
   -1.4690    1.2998    1.7501 C   0  0  0  0  0  0  0  0  0  0  0  0
   -0.6459   -1.4527   -0.7005 C   0  0  0  0  0  0  0  0  0  0  0  0
    0.8502   -1.7544   -0.4048 C   0  0  2  0  0  0  0  0  0  0  0  0
    3.1787   -0.6649    0.2921 C   0  0  1  0  0  0  0  0  0  0  0  0
    1.6194    1.6470    1.4815 C   0  0  0  0  0  0  0  0  0  0  0  0
   -1.5106   -1.6826    1.7074 C   0  0  0  0  0  0  0  0  0  0  0  0
    3.0977    1.4504    1.8126 C   0  0  0  0  0  0  0  0  0  0  0  0
   -3.3331    1.8342   -0.8670 C   0  0  0  0  0  0  0  0  0  0  0  0
   -3.9346   -1.0742    0.1165 C   0  0  0  0  0  0  0  0  0  0  0  0
    3.7455    0.7190    0.6616 C   0  0  0  0  0  0  0  0  0  0  0  0
    3.4677   -1.6262    1.4734 C   0  0  0  0  0  0  0  0  0  0  0  0
    3.8742   -1.2779   -0.9275 C   0  0  0  0  0  0  0  0  0  0  0  0
   -4.0556   -2.1244   -0.9542 C   0  0  0  0  0  0  0  0  0  0  0  0
   -4.7642    1.8090   -1.4217 C   0  0  0  0  0  0  0  0  0  0  0  0
   -2.5164    2.9083   -1.5938 C   0  0  0  0  0  0  0  0  0  0  0  0
    4.7495    1.3034   -0.0207 C   0  0  0  0  0  0  0  0  0  0  0  0
    4.8733   -0.6828   -1.5905 C   0  0  0  0  0  0  0  0  0  0  0  0
    5.3667    0.6328   -1.1714 C   0  0  0  0  0  0  0  0  0  0  0  0
   -0.5274    1.1824   -0.1467 H   0  0  0  0  0  0  0  0  0  0  0  0
    0.9453   -0.3187    2.0936 H   0  0  0  0  0  0  0  0  0  0  0  0
   -3.5598    0.8108    2.0542 H   0  0  0  0  0  0  0  0  0  0  0  0
   -1.3707    0.7971    2.7350 H   0  0  0  0  0  0  0  0  0  0  0  0
   -1.2375    2.3725    1.9216 H   0  0  0  0  0  0  0  0  0  0  0  0
   -0.6733   -0.7980   -1.5987 H   0  0  0  0  0  0  0  0  0  0  0  0
   -1.1622   -2.3979   -0.9613 H   0  0  0  0  0  0  0  0  0  0  0  0
    1.2986   -2.1603   -1.3398 H   0  0  0  0  0  0  0  0  0  0  0  0
    1.1288    2.1549    2.3389 H   0  0  0  0  0  0  0  0  0  0  0  0
    1.5429    2.3169    0.5957 H   0  0  0  0  0  0  0  0  0  0  0  0
   -2.1034   -1.2404    2.5320 H   0  0  0  0  0  0  0  0  0  0  0  0
   -2.0507   -2.6035    1.4019 H   0  0  0  0  0  0  0  0  0  0  0  0
   -0.5548   -1.9882    2.1624 H   0  0  0  0  0  0  0  0  0  0  0  0
    3.2053    0.8667    2.7492 H   0  0  0  0  0  0  0  0  0  0  0  0
    3.5629    2.4448    1.9910 H   0  0  0  0  0  0  0  0  0  0  0  0
    2.9529   -1.3322    2.4078 H   0  0  0  0  0  0  0  0  0  0  0  0
    3.1895   -2.6727    1.2446 H   0  0  0  0  0  0  0  0  0  0  0  0
    4.5600   -1.6442    1.6815 H   0  0  0  0  0  0  0  0  0  0  0  0
    3.5589   -2.2573   -1.2733 H   0  0  0  0  0  0  0  0  0  0  0  0
    0.7387   -3.6057    0.1697 H   0  0  0  0  0  0  0  0  0  0  0  0
   -4.0410   -3.1284   -0.4813 H   0  0  0  0  0  0  0  0  0  0  0  0
   -3.2160   -2.0844   -1.6777 H   0  0  0  0  0  0  0  0  0  0  0  0
   -4.7554    1.5622   -2.5050 H   0  0  0  0  0  0  0  0  0  0  0  0
   -5.3769    1.0509   -0.8929 H   0  0  0  0  0  0  0  0  0  0  0  0
   -5.2500    2.7986   -1.2829 H   0  0  0  0  0  0  0  0  0  0  0  0
   -1.4833    2.9560   -1.1947 H   0  0  0  0  0  0  0  0  0  0  0  0
   -2.4634    2.6848   -2.6809 H   0  0  0  0  0  0  0  0  0  0  0  0
   -2.9826    3.9075   -1.4562 H   0  0  0  0  0  0  0  0  0  0  0  0
    5.1124    2.2873    0.2644 H   0  0  0  0  0  0  0  0  0  0  0  0
    5.3253   -1.1810   -2.4433 H   0  0  0  0  0  0  0  0  0  0  0  0
   -5.1469   -1.2110   -2.2678 H   0  0  0  0  0  0  0  0  0  0  0  0
  1 12  1  0  0  0  0
  2 11  1  0  0  0  0
  2 21  1  0  0  0  0
  3 13  1  0  0  0  0
  3 21  1  0  0  0  0
  4 16  1  0  0  0  0
  4 51  1  0  0  0  0
  5 22  2  0  0  0  0
  6 26  1  0  0  0  0
  6 62  1  0  0  0  0
  7 31  2  0  0  0  0
  8  9  1  1  0  0  0
  8 15  1  0  0  0  0
  8 19  1  0  0  0  0
  9 10  1  1  0  0  0
  9 14  1  0  0  0  0
  9 32  1  0  0  0  0
 10 12  1  6  0  0  0
 10 18  1  0  0  0  0
 10 33  1  0  0  0  0
 11  8  1  1  0  0  0
 11 22  1  0  0  0  0
 12 16  1  6  0  0  0
 13 11  1  6  0  0  0
 13 14  1  0  0  0  0
 13 34  1  0  0  0  0
 14 35  1  0  0  0  0
 14 36  1  0  0  0  0
 15 16  1  0  0  0  0
 15 37  1  0  0  0  0
 15 38  1  0  0  0  0
 16 39  1  6  0  0  0
 17 12  1  6  0  0  0
 17 23  1  0  0  0  0
 17 24  1  0  0  0  0
 17 25  1  0  0  0  0
 18 20  1  0  0  0  0
 18 40  1  0  0  0  0
 18 41  1  0  0  0  0
 19 42  1  0  0  0  0
 19 43  1  0  0  0  0
 19 44  1  0  0  0  0
 20 23  1  0  0  0  0
 20 45  1  0  0  0  0
 20 46  1  0  0  0  0
 21 27  1  0  0  0  0
 21 28  1  0  0  0  0
 22 26  1  0  0  0  0
 23 29  2  0  0  0  0
 24 47  1  0  0  0  0
 24 48  1  0  0  0  0
 24 49  1  0  0  0  0
 25 30  2  0  0  0  0
 25 50  1  0  0  0  0
 26 52  1  0  0  0  0
 26 53  1  0  0  0  0
 27 54  1  0  0  0  0
 27 55  1  0  0  0  0
 27 56  1  0  0  0  0
 28 57  1  0  0  0  0
 28 58  1  0  0  0  0
 28 59  1  0  0  0  0
 29 31  1  0  0  0  0
 29 60  1  0  0  0  0
 30 31  1  0  0  0  0
 30 61  1  0  0  0  0
M  END
