
 OpenBabel09142119013D

 35 37  0  0  0  0  0  0  0  0999 V2000
    7.1100    2.5677   -1.2803 C   0  0  0  0  0  0  0  0  0  0  0  0
    7.0225    1.3753   -1.9972 C   0  0  0  0  0  0  0  0  0  0  0  0
    6.2473    2.8001   -0.2110 C   0  0  0  0  0  0  0  0  0  0  0  0
    6.0767    0.4075   -1.6453 C   0  0  0  0  0  0  0  0  0  0  0  0
    5.1967    0.6137   -0.5544 C   0  0  0  0  0  0  0  0  0  0  0  0
    5.2992    1.8386    0.1464 C   0  0  0  0  0  0  0  0  0  0  0  0
    4.1190   -0.4068   -0.1249 C   0  0  0  0  0  0  0  0  0  0  0  0
    2.5540    0.4838   -0.2733 Cl  0  0  0  0  0  0  0  0  0  0  0  0
    4.1397   -1.6847   -0.9875 C   0  0  0  0  0  0  0  0  0  0  0  0
    4.2465   -0.8665    1.3385 C   0  0  0  0  0  0  0  0  0  0  0  0
    5.2549   -2.5503   -0.9046 C   0  0  0  0  0  0  0  0  0  0  0  0
    5.3132   -3.7241   -1.6594 C   0  0  0  0  0  0  0  0  0  0  0  0
    3.0820   -2.0495   -1.8527 C   0  0  0  0  0  0  0  0  0  0  0  0
    3.1483   -3.2263   -2.6051 C   0  0  0  0  0  0  0  0  0  0  0  0
    4.2611   -4.0616   -2.5095 C   0  0  0  0  0  0  0  0  0  0  0  0
    3.2266   -1.6746    1.8885 C   0  0  0  0  0  0  0  0  0  0  0  0
    3.2989   -2.1270    3.2083 C   0  0  0  0  0  0  0  0  0  0  0  0
    5.3511   -0.5438    2.1621 C   0  0  0  0  0  0  0  0  0  0  0  0
    5.4168   -1.0009    3.4817 C   0  0  0  0  0  0  0  0  0  0  0  0
    4.3919   -1.7887    4.0050 C   0  0  0  0  0  0  0  0  0  0  0  0
    7.8433    3.3140   -1.5572 H   0  0  0  0  0  0  0  0  0  0  0  0
    7.6883    1.2002   -2.8326 H   0  0  0  0  0  0  0  0  0  0  0  0
    6.3112    3.7280    0.3425 H   0  0  0  0  0  0  0  0  0  0  0  0
    6.0477   -0.4888   -2.2448 H   0  0  0  0  0  0  0  0  0  0  0  0
    4.6405    2.0485    0.9802 H   0  0  0  0  0  0  0  0  0  0  0  0
    6.0844   -2.3110   -0.2506 H   0  0  0  0  0  0  0  0  0  0  0  0
    6.1762   -4.3730   -1.5838 H   0  0  0  0  0  0  0  0  0  0  0  0
    2.1981   -1.4402   -1.9646 H   0  0  0  0  0  0  0  0  0  0  0  0
    2.3320   -3.4915   -3.2648 H   0  0  0  0  0  0  0  0  0  0  0  0
    4.3074   -4.9716   -3.0938 H   0  0  0  0  0  0  0  0  0  0  0  0
    2.3681   -1.9552    1.2908 H   0  0  0  0  0  0  0  0  0  0  0  0
    2.5059   -2.7426    3.6128 H   0  0  0  0  0  0  0  0  0  0  0  0
    6.1775    0.0496    1.8012 H   0  0  0  0  0  0  0  0  0  0  0  0
    6.2683   -0.7458    4.0994 H   0  0  0  0  0  0  0  0  0  0  0  0
    4.4473   -2.1412    5.0268 H   0  0  0  0  0  0  0  0  0  0  0  0
  1  2  1  0  0  0  0
  1  3  2  0  0  0  0
  1 21  1  0  0  0  0
  2  4  2  0  0  0  0
  2 22  1  0  0  0  0
  3 23  1  0  0  0  0
  4  5  1  0  0  0  0
  4 24  1  0  0  0  0
  5  7  1  0  0  0  0
  5  6  2  0  0  0  0
  6  3  1  0  0  0  0
  6 25  1  0  0  0  0
  7  8  1  0  0  0  0
  7  9  1  0  0  0  0
  7 10  1  0  0  0  0
  9 11  1  0  0  0  0
  9 13  2  0  0  0  0
 10 16  1  0  0  0  0
 10 18  2  0  0  0  0
 11 12  2  0  0  0  0
 11 26  1  0  0  0  0
 12 15  1  0  0  0  0
 12 27  1  0  0  0  0
 13 28  1  0  0  0  0
 14 13  1  0  0  0  0
 14 29  1  0  0  0  0
 15 14  2  0  0  0  0
 15 30  1  0  0  0  0
 16 17  2  0  0  0  0
 16 31  1  0  0  0  0
 17 20  1  0  0  0  0
 17 32  1  0  0  0  0
 18 33  1  0  0  0  0
 19 18  1  0  0  0  0
 19 34  1  0  0  0  0
 20 19  2  0  0  0  0
 20 35  1  0  0  0  0
M  END
