11
1,2-DIIODOPROPANE.gamout
C          0.86737        0.18945        0.22087
C          0.64097       -0.86006       -0.65157
C          1.12443       -2.15078       -0.21327
I         -1.35781       -0.93647       -0.80588
I          2.86427        0.19297       -0.00064
H          0.48095        1.13877       -0.08463
H          0.62390       -0.00101        1.25257
H          0.93372       -0.62732       -1.65450
H          0.73903       -2.39531        0.77661
H          2.22053       -2.10583       -0.16407
H          0.83641       -2.94631       -0.90129
