10
1-BUTYNE.gamout
C          2.21520        0.80309        0.89123
C          1.00218        0.96370        0.88540
C          3.66863        0.61612        0.88796
C          4.46317        1.93933        0.89309
H         -0.06838        1.10563        0.88026
H          3.95466        0.00389        1.77051
H          3.95060        0.01297       -0.00207
H          5.55160        1.73467        0.89018
H          4.21986        2.54819        0.00155
H          4.22296        2.53919        1.79151
