28
3-DECYNE.gamout
C          6.84426        0.95076        2.56172
C          5.75614        1.86716        1.96112
C          4.39132        1.17328        1.91088
C          8.16303        1.57706        2.67289
C          3.26628        2.03648        1.32580
C          9.26641        2.10409        2.76371
C          1.91025        1.31842        1.30255
C         10.58588        2.73163        2.90460
C          0.77047        2.16711        0.72896
C         10.90128        3.21557        4.33552
H          6.92135        0.02642        1.94629
H          6.51659        0.61111        3.56972
H          6.06546        2.17975        0.94156
H          5.68691        2.79665        2.56409
H          4.11059        0.85538        2.93959
H          4.48189        0.23548        1.31877
H          3.53810        2.34947        0.29335
H          3.17562        2.97639        1.91425
H          1.65604        1.00094        2.33725
H          2.01264        0.37954        0.71611
H         11.36595        2.00883        2.57978
H         10.65906        3.58688        2.19803
H         -0.18964        1.61593        0.74113
H          0.97512        2.46087       -0.32096
H          0.62986        3.09916        1.31375
H         10.86745        2.37321        5.05261
H         10.16558        3.97369        4.66638
H         11.91098        3.66850        4.37509
