19
4-METHYL-2-HEXYNE.gamout
C          4.53563        2.74494        1.22290
C          3.26979        2.00574        1.09394
C          2.10871        2.77750        1.77696
C          3.41630        0.56061        1.62147
C          5.58814        3.36455        1.33327
C          0.72180        2.17186        1.53165
C          6.84822        4.09794        1.46418
H          3.02959        1.94594        0.00636
H          2.12888        3.82272        1.40861
H          2.31700        2.83217        2.86658
H          2.49820       -0.02714        1.43086
H          4.26005        0.04731        1.12457
H          3.61024        0.56365        2.71235
H         -0.06705        2.80652        1.97934
H          0.62155        1.16208        1.97531
H          0.50636        2.08696        0.44652
H          7.20789        4.09817        2.51400
H          6.73418        5.15554        1.14866
H          7.64333        3.64377        0.83760
