27
9-METHYLANTHRACENE.gamout
C          5.68840        2.19090        3.75790
C          4.24390        2.10730        4.10360
C          3.79180        2.55040        5.35910
C          3.32910        1.56200        3.18570
C          2.42430        2.39700        5.71460
C          4.67500        3.16690        6.30590
C          1.96340        1.41260        3.54990
C          3.73070        1.15010        1.87230
C          1.52820        1.82290        4.81110
C          1.98440        2.83510        7.00700
C          4.22510        3.57540        7.52180
C          1.04800        0.83500        2.60960
C          2.83670        0.61000        1.00240
C          2.85790        3.40120        7.88170
C          1.47300        0.44330        1.37900
H          5.84180        2.30270        2.67270
H          6.20500        1.27140        4.06790
H          6.18160        3.03230        4.27030
H          5.72410        3.30910        6.00460
H          4.78430        1.30140        1.59190
H          0.47540        1.69730        5.09240
H          0.92870        2.70220        7.26960
H          4.90300        4.04740        8.24040
H          0.00000        0.71840        2.90860
H          3.14800        0.29890        0.00000
H          2.52660        3.73500        8.87030
H          0.77800        0.00000        0.65860
