24
ALFA_D-FRUCTOFURANOSE.gamout
O          3.22996        0.32771        1.11899
C          4.09106       -0.08554        2.20544
C          3.17635       -0.10160        3.47220
C          1.79264        0.31711        2.94773
C          1.89568       -0.05270        1.45837
H          1.74450       -1.15143        1.34015
C          0.92986        0.69938        0.55950
H          1.70790        1.42696        3.03718
O          0.75443       -0.33206        3.66741
H          3.11398       -1.15212        3.82327
O          3.70510        0.74929        4.48702
C          5.26373        0.90800        2.26655
O          4.56670       -1.39283        1.99864
H          1.09020        0.40595       -0.49983
H          1.11446        1.79300        0.65339
O         -0.38869        0.35245        1.01092
H         -1.05073        0.81411        0.47033
H         -0.06101       -0.22914        3.13805
H          3.19962        0.59628        5.30316
H          5.34092       -1.29330        1.40179
O          6.22596        0.52642        1.26934
H          7.11985        0.67575        1.61617
H          5.70132        0.87708        3.28223
H          4.88283        1.92965        2.06887
