20
ALPHA-D-XYLOPYRANOSE.gamout
C         -0.09471       28.87782       -0.03439
C          0.88928       30.04446       -0.12412
C          0.67258       27.54552        0.08853
O         -0.92119       28.77709       -1.20792
O          1.76643       29.88496       -1.23826
C          2.59383       28.71484       -1.08550
C          1.73943       27.42625       -1.03581
O          3.47090       28.64748       -2.16087
O          1.13443       27.10857       -2.27408
O          1.24030       27.52715        1.39897
H         -0.73142       29.00500        0.86808
H          0.36349       31.00930       -0.27064
H          1.45824       30.10145        0.83238
H         -0.05520       26.71842       -0.05753
H         -0.93321       29.63930       -1.66121
H          3.13338       28.81809       -0.10815
H          2.42679       26.58612       -0.79521
H          4.02624       29.44832       -2.15929
H          0.33956       27.67835       -2.35354
H          1.63513       26.65280        1.55944
