24
ANTHRACENE.gamout
C         -0.01238       -0.18570       -0.00707
C         -1.15768       -0.90379       -0.27983
C          1.22518       -0.84632        0.25330
C          2.40042       -0.13160        0.53256
C          3.61231       -0.79046        0.78731
C          4.81454       -0.07677        1.07254
C          5.99439       -0.74507        1.32000
C         -1.12084       -2.33347       -0.30561
C          1.26248       -2.29470        0.22716
H          0.00310        0.90951        0.02237
C          0.05773       -3.00514       -0.05853
C          2.47480       -2.95429        0.48201
H         -2.10012       -0.37462       -0.47759
H         -2.03498       -2.90252       -0.52318
H          0.11831       -4.09963       -0.07091
H          2.37039        0.96777        0.55182
C          3.64986       -2.23872        0.76122
H          2.50450       -4.05389        0.46266
C          4.88873       -2.89584        1.02199
H          4.74931        1.01712        1.08390
C          6.03137       -2.17438        1.29427
H          6.90782       -0.17531        1.53756
H          4.87870       -3.99090        0.99372
H          6.97369       -2.70208        1.49208
