26
ANTIPYRINE.gamout
O          0.39116        6.79353        0.01291
N          2.34500        5.46438       -0.07502
N          3.72003        5.70551        0.07426
C          3.86116        7.02351        0.49648
C          1.91718        4.39350       -0.89532
C          1.60891        6.68225        0.16187
C          2.63627        7.64427        0.53024
C          4.52139        4.61881        0.64503
C          5.21366        7.58222        0.81191
C          2.77413        3.84188       -1.87293
C          0.61383        3.87392       -0.73700
C          2.34248        2.76320       -2.65591
C          0.18429        2.81554       -1.55172
C          1.04738        2.24521       -2.50065
H          2.43547        8.69639        0.74876
H          4.95217        3.96658       -0.13722
H          3.89718        4.00074        1.32026
H          5.34440        5.05589        1.23281
H          5.93353        7.36455       -0.00158
H          5.14031        8.67684        0.93037
H          5.63777        7.17644        1.75512
H          3.76914        4.27409       -2.03680
H         -0.05235        4.32253        0.00732
H          3.02255        2.33139       -3.40566
H         -0.83625        2.42047       -1.43434
H          0.71285        1.40459       -3.12246
