16
ASPARTIC_ACID.gamout
C          1.75935        1.62049       -0.14602
C          3.04155        0.84903        0.23375
C          4.24620        1.80103        0.22013
N          3.35567       -0.30823       -0.60324
C          0.50454        0.77230        0.02282
O          4.30393        2.84517       -0.40964
O          5.26276        1.34764        0.99074
O          0.47937       -0.33718        0.51521
O         -0.65728        1.34278       -0.41606
H          1.83686        1.98889       -1.19155
H          1.65421        2.53451        0.47996
H          2.66357       -1.04865       -0.44654
H          3.35035       -0.06693       -1.60055
H          6.00746        1.97540        0.87714
H         -0.48215        2.23129       -0.78287
H          2.93410        0.47034        1.26985
