26
BACLOFEN.gamout
Cl        -4.79544        0.16706        0.32927
O          2.67116        2.80523        0.07556
O          2.21755        1.60508       -1.79020
N          2.90846       -2.52475        0.40759
C          1.24145       -0.63615       -0.15465
C         -0.25151       -0.35984       -0.05143
C          2.12652        0.50257        0.38545
C          1.56179       -1.99233        0.55831
C         -1.09834       -0.51726       -1.16772
C         -0.84731       -0.03200        1.18423
C          2.31832        1.65989       -0.57741
C         -2.49011       -0.35963       -1.06150
C         -2.23566        0.13162        1.31221
C         -3.05060       -0.03638        0.18264
H          1.49220       -0.76378       -1.22877
H          1.76483        0.89380        1.35537
H          3.15284        0.11306        0.57855
H          0.84626       -2.74580        0.17311
H          1.34765       -1.90080        1.64368
H         -0.65968       -0.76552       -2.14586
H         -0.21995        0.10299        2.07779
H          3.61888       -1.97392        0.89773
H          3.18566       -2.60403       -0.57549
H         -3.13683       -0.47778       -1.94091
H         -2.67948        0.39012        2.28194
H          2.81792        3.48730       -0.61415
