24
BETA-D-FRUCTOFURANOSE.gamout
O         -0.61802        3.12747        4.86936
C         -1.16068        4.13020        3.98725
C         -0.14171        2.01234        4.13770
C         -1.29636        3.43276        2.61837
C         -0.05687        2.51890        2.66043
C          1.21522        1.55729        4.68870
C         -2.43580        4.68816        4.62254
H         -0.42182        4.96499        3.88689
O         -2.96237        5.78049        3.87581
H         -2.18603        5.08210        5.62687
H         -3.16405        3.85864        4.75555
H         -3.55410        5.44514        3.18091
O          1.08368        1.14604        6.03498
H          1.58969        0.72125        4.04464
H          1.92137        2.41220        4.57444
H          1.95302        0.87528        6.37530
O         -1.14791        1.01352        4.24446
H         -0.86333        0.22280        3.74896
O         -1.43781        4.27665        1.49724
H         -2.18791        2.77264        2.61452
H         -0.69449        4.90784        1.46828
O         -0.10399        1.51482        1.66413
H          0.76128        1.07375        1.59545
H          0.85304        3.15708        2.54491
