24
BETA-D-FRUCTOPYRANOSE.gamout
O         -0.76145        1.11555       -0.64169
C         -2.04913        1.13954       -0.02431
C         -2.43256       -0.24634        0.51441
H         -2.76878        1.47880       -0.79402
H         -2.09048        1.88472        0.80172
C         -1.37150       -0.71411        1.52855
C          0.02410       -0.65907        0.85587
C          0.28409        0.76748        0.26216
C          1.59409        0.80922       -0.54553
O         -2.47385       -1.23584       -0.52793
H         -3.41807       -0.18341        1.02674
H         -3.29621       -1.13714       -1.03685
O         -1.69380       -1.99488        2.05258
H         -1.35948       -0.01489        2.38585
H         -1.63896       -2.64261        1.32545
O          1.01231       -1.01431        1.82442
H          0.02103       -1.37809        0.00986
H          1.69925       -1.56602        1.41568
O          0.36293        1.67759        1.34529
H          0.33941        2.57253        0.95376
O          1.75267        2.13689       -1.06066
H          2.42610        0.54581        0.14131
H          1.54303        0.06341       -1.37226
H          2.57909        2.19352       -1.56977
