33
BISPHENOL_A.gamout
C          6.98419        3.82175       -2.11925
C          7.23836        3.06288       -0.79062
C          6.94848        4.06531        0.35812
C          6.28463        1.85571       -0.60708
C          8.70742        2.57268       -0.79749
C          6.46744        0.99119        0.49773
C          5.18320        1.58674       -1.44421
C          9.09686        1.55625       -1.70144
C          9.71899        3.12233        0.01405
C          4.29926        0.51689       -1.19419
C          4.50013       -0.31427       -0.08023
C          5.59806       -0.07052        0.76852
O          3.67070       -1.36551        0.22865
C         10.42178        1.11782       -1.80688
C         11.41619        1.69049       -0.98985
C         11.05878        2.69315       -0.07428
O         12.70457        1.23305       -1.13281
H          7.11421        3.17367       -3.00610
H          7.69877        4.66327       -2.21127
H          5.96117        4.24827       -2.14707
H          7.15384        3.63249        1.35505
H          7.55232        4.98893        0.24892
H          5.88147        4.36122        0.33569
H          7.32416        1.15299        1.16945
H          4.98329        2.21804       -2.32017
H          8.33133        1.08720       -2.33773
H          9.48089        3.91454        0.73605
H          3.44835        0.33798       -1.87179
H          5.74907       -0.72445        1.63870
H          2.96350       -1.42029       -0.43810
H         10.71276        0.33259       -2.51813
H         11.82599        3.14901        0.57239
H         13.28317        1.70450       -0.50780
