18
CITRATE-3.gamout
O         -0.39450       -0.37330        1.59220
O          0.63270       -2.65070        0.55420
O          0.93660       -1.76800       -1.51980
O          2.21940        0.43290        1.46860
O         -2.40360        1.74270       -0.95330
O          2.81240        1.74680       -0.29160
O         -3.80650        0.25300        0.02370
C         -0.21090       -0.37980        0.14920
C          0.60010        0.86130       -0.24790
C         -1.60260       -0.47710       -0.51670
C          0.54740       -1.71540       -0.30810
C          2.01170        0.99000        0.34680
C         -2.67240        0.61970       -0.42990
H          0.07120        1.76090        0.09130
H          0.68150        0.92220       -1.34030
H         -1.46690       -0.63900       -1.59590
H         -2.08010       -1.39620       -0.14490
H          0.53870       -0.45990        1.90260
