22
TRIETHYLAMINE.gamout
N         -0.03968       -0.05603       -0.09615
C          1.41937       -0.17522       -0.14131
C         -0.50501        1.32717       -0.22198
C         -0.63897       -0.76205        1.03846
C          1.95233       -1.61137       -0.20637
C         -0.05881        2.04910       -1.49898
C         -2.17061       -0.83019        1.02510
H          1.90240        0.35808        0.72736
H          1.76487        0.34695       -1.05318
H         -0.20631        1.94301        0.67423
H         -1.61108        1.30501       -0.22401
H         -0.29721       -0.32538        2.02075
H         -0.26073       -1.80147        1.01698
H          3.05031       -1.59184       -0.35484
H          1.49615       -2.15952       -1.05433
H          1.76572       -2.18604        0.72073
H         -0.55337        3.03926       -1.55695
H         -0.34331        1.46586       -2.39709
H          1.03147        2.23611       -1.53660
H         -2.51905       -1.47876        1.85344
H         -2.53480       -1.26001        0.07081
H         -2.65182        0.15598        1.16844
