16
1,2-BUTANEDIOL.gamout
O         -0.14840        1.65930        0.52420
O          2.43260        0.53480        0.50830
C          0.08380        0.35650        0.05030
C         -1.16650       -0.50550        0.29120
C          1.29830       -0.24490        0.76760
C         -2.38680        0.04060       -0.44870
H          0.28120        0.37100       -1.04850
H         -1.39210       -0.54590        1.37950
H         -0.97590       -1.54070       -0.06790
H          1.10280       -0.27060        1.86360
H          1.46770       -1.27880        0.39100
H         -2.63220        1.06500       -0.09700
H         -2.19490        0.06630       -1.54250
H         -3.26160       -0.61590       -0.25710
H          0.41640        2.27090       -0.01680
H          3.18090        0.10320        0.99680
