46
1-HEXADECYNE.gamout
C         10.98124        1.24214        1.81981
C          9.68463        1.09521        1.00880
C          8.40407        1.29495        1.83421
C         12.25944        1.05017        0.98896
C          7.10916        1.15384        1.01950
C         13.55852        1.21158        1.79350
C          5.82766        1.35763        1.84247
C         14.83303        1.02949        0.95493
C          4.53289        1.21709        1.02741
C         16.13148        1.22506        1.75096
C          3.25191        1.42196        1.85065
C         17.39864        1.03774        0.88386
C          1.95491        1.27724        1.03879
C         18.65305        1.28194        1.59811
C          0.68314        1.48414        1.87145
C         19.69341        1.48838        2.20853
H         11.00249        2.24805        2.29991
H         10.97537        0.51109        2.66110
H          9.69432        1.82419        0.16566
H          9.66156        0.08832        0.53079
H          8.39167        0.56451        2.67604
H          8.42882        2.30101        2.31392
H         12.24273        0.04176        0.51403
H         12.25957        1.77699        0.14395
H          7.08342        0.14720        0.54104
H          7.12342        1.88311        0.17665
H         13.56413        0.48316        2.63678
H         13.57314        2.21923        2.26968
H          5.85374        2.36440        2.32063
H          5.81325        0.62857        2.68548
H         14.81620        1.74661        0.10184
H         14.82975        0.01511        0.49263
H          4.54762        1.94581        0.18406
H          4.50660        0.21001        0.54982
H         16.14888        2.24205        2.20105
H         16.16624        0.51239        2.60409
H          3.27696        2.43020        2.32624
H          3.23877        0.69519        2.69594
H         17.41157        0.00671        0.46139
H         17.34643        1.71962        0.00375
H          1.93218        0.26903        0.56526
H          1.96962        2.00283        0.19377
H          0.65599        2.49919        2.32290
H          0.62406        0.75201        2.70517
H         -0.23440        1.36657        1.25823
H         20.61465        1.66961        2.74461
