54
ALDOSTERONE.gamout
O         -0.29091        1.18181       -1.78938
O         -3.20289        0.26864       -1.44813
O         -5.11747       -0.92987        1.16979
O          6.02329        1.28831        1.42592
O         -3.92166        2.20049        0.32939
C         -0.53644       -1.22249        0.68589
C          0.70199       -1.13896       -0.22913
C         -1.63568       -0.16632        0.37862
C          1.27964        0.31073       -0.17110
C          2.61553        0.46211       -1.00794
C          0.18168        1.36351       -0.44159
C         -1.00349        1.23577        0.53570
C         -2.74648       -0.58149        1.42120
C         -1.31373       -2.54444        0.81189
C          1.75821       -2.18837        0.17302
C         -2.64831       -2.13386        1.49193
C          3.55711       -0.60595       -0.43625
C          3.09086       -2.02981       -0.60025
C          3.26953        1.86456       -0.86895
C         -2.20048       -0.31789       -1.04504
C          2.40470        0.21596       -2.52656
C         -4.21173       -0.10947        1.24014
C          3.95662        2.12806        0.47465
C          4.65572       -0.30489        0.31499
C          5.00386        1.05636        0.77942
C         -4.56276        1.39032        1.29384
H         -0.16921       -0.96504        1.70970
H          0.39268       -1.35247       -1.27699
H          1.57399        0.48258        0.89100
H          0.62135        2.38188       -0.32826
H         -0.64426        1.34853        1.58260
H         -1.75585        2.03349        0.36543
H         -2.41684       -0.12147        2.38187
H         -0.76062       -3.30782        1.39509
H         -1.49497       -2.98816       -0.19290
H          1.35244       -3.21009        0.01393
H          1.96962       -2.08910        1.26217
H         -3.53493       -2.57233        0.99309
H         -2.69132       -2.47803        2.54528
H          2.93008       -2.28107       -1.67095
H          3.84899       -2.73636       -0.20508
H          2.52119        2.65395       -1.09193
H          4.03636        1.94742       -1.67063
H         -1.69780       -1.06080       -1.72127
H          1.87446        1.07366       -2.98231
H          3.38635        0.09589       -3.03117
H          1.79910       -0.68358       -2.74800
H          3.22240        2.11660        1.31452
H          4.44897        3.12090        0.51092
H          5.31302       -1.11114        0.68524
H         -0.90135        1.91601       -1.99962
H         -4.27821        1.76702        2.30643
H         -5.67565        1.44065        1.23267
H         -3.81007        1.62763       -0.47411
