24
ALFA_D-FRUCTOFURANOSE.gamout
O          3.24698        0.49673        1.18206
C          4.07956       -0.03387        2.23152
C          3.19023        0.01641        3.51751
C          1.75887        0.22796        2.96505
C          1.94077       -0.00650        1.44875
H          1.88717       -1.10480        1.25603
C          0.92351        0.72448        0.58545
H          1.52337        1.30711        3.14685
O          0.82117       -0.63491        3.57618
H          3.24045       -0.97215        4.02311
O          3.63130        1.07774        4.36243
C          5.36564        0.80981        2.28493
O          4.41420       -1.37653        1.98567
H          1.05798        0.45054       -0.48676
H          1.10431        1.82437        0.67708
O         -0.36912        0.35545        1.07732
H         -1.03296        0.55881        0.39575
H         -0.02488       -0.45052        3.11698
H          3.35446        0.85943        5.27032
H          5.21776       -1.30981        1.41547
O          6.23593        0.29844        1.26975
H          7.15199        0.51882        1.51248
H          5.80482        0.71854        3.30198
H          5.11169        1.87716        2.10555
