34
AMINOPYRINE.gamout
O          0.53772       -2.10092        0.17888
N          0.39671        1.39787       -0.00571
N         -0.17954        0.13626        0.24770
N          3.20914       -0.89305       -0.50815
C          1.78688        1.17238       -0.17224
C          2.05422       -0.18789       -0.17677
C          0.78510       -0.89506        0.10692
C         -1.57548       -0.04583        0.07952
C          2.69880        2.35889       -0.26783
C         -0.02119        2.42495        0.95967
C          4.26449       -0.29947       -1.29781
C          3.57833       -2.07123        0.26206
C         -2.21321       -1.13273        0.72030
C         -2.33003        0.83542       -0.72912
C         -3.59345       -1.32259        0.55120
C         -3.71299        0.64062       -0.87168
C         -4.35270       -0.43752       -0.23445
H          3.75436        2.04341       -0.32686
H          2.61351        3.00998        0.62936
H          2.47437        2.99925       -1.15012
H          0.35233        3.40973        0.62174
H          0.35554        2.21643        1.98875
H         -1.12644        2.47607        0.98021
H          3.84747        0.44570       -2.00385
H          5.06964        0.19766       -0.69553
H          4.76150       -1.09360       -1.89967
H          4.06753       -2.81950       -0.39966
H          2.67078       -2.53519        0.69057
H          4.29647       -1.83446        1.08928
H         -1.61483       -1.82869        1.32204
H         -1.81707        1.65783       -1.24944
H         -4.07762       -2.17968        1.04604
H         -4.29323        1.33317       -1.50245
H         -5.43769       -0.58446       -0.35234
