6
AMMONIUM_CHLORIDE.gamout
N         -0.24380        2.65175       -0.36158
Cl        -2.86512        1.11372       -0.14016
H          0.16544        2.71782       -1.30894
H          0.48202        2.17062        0.19160
H         -1.72580        1.79084       -0.43632
H         -0.35452        3.61094       -0.00616
