25
B4CNPY+1.gamout
C         -0.24280       -1.94952       -1.05409
C         -0.30816       -0.64587       -0.26592
H         -1.25598       -2.36783       -1.24319
H          0.34060       -2.69843       -0.51120
H          0.22551       -1.81817       -2.03462
C          1.05078        0.05560       -0.10619
H         -0.75434       -0.81903        0.72582
H         -1.00450        0.04846       -0.77276
C          0.92609        1.34727        0.72450
H          1.45070        0.27802       -1.11832
H          1.79258       -0.61640        0.36950
N          1.87022        2.43285        0.29713
H          1.10486        1.16568        1.79355
H         -0.09725        1.78418        0.61145
C          1.76617        2.91579       -0.97619
C          2.77682        2.97280        1.17330
C          3.57523        4.05629        0.80715
C          2.52694        3.99638       -1.40541
C          3.43648        4.60554       -0.49690
C          4.18308        5.76198       -0.89881
N          4.76973        6.71608       -1.24003
H          4.29284        4.48152        1.53579
H          2.83298        2.52921        2.18105
H          1.03913        2.41739       -1.63559
H          2.41659        4.36052       -2.43653
