57
BETAMETHASONE.gamout
F          1.43469       -0.03367        1.34157
O         -2.87021       -0.36867        1.92315
O          0.51059        2.19754       -1.29707
O         -4.72912        0.82323       -0.90470
O         -6.29599        1.69842        0.97092
O          6.29513        0.16642        1.70155
C         -1.73808        0.20353       -0.22598
C         -0.87155       -1.07758       -0.05163
C          0.53847       -0.96575       -0.65673
C          1.27835        0.25572       -0.04127
C         -3.06569       -0.28803        0.50218
C         -1.80517       -2.20667       -0.50845
C         -1.00284        1.35807        0.48287
C         -3.20907       -1.80652        0.04420
C          0.44788        1.57647       -0.01512
C          2.75886        0.41253       -0.59933
C          1.35155       -2.25680       -0.41890
C         -1.99498        0.54860       -1.70960
C          2.82262       -2.14014       -0.86663
C          3.47506       -0.90463       -0.29902
C         -4.32248        0.54370        0.22244
C         -4.36412       -2.16238       -0.89933
C          2.82287        0.65511       -2.14259
C          3.43210        1.60282        0.05021
C          4.61609       -0.95568        0.43785
C         -5.14738        1.04597        1.41095
C          4.56775        1.52814        0.78110
C          5.25488        0.23642        1.03795
H         -0.73138       -1.19743        1.04467
H          0.45756       -0.78766       -1.75171
H         -1.82714       -2.27977       -1.61821
H         -1.50039       -3.20155       -0.12583
H         -0.91834        1.14152        1.56993
H         -1.55018        2.32636        0.39043
H         -3.37502       -2.33190        1.00716
H          0.95692        2.21701        0.74470
H          0.86777       -3.10102       -0.95301
H          1.31865       -2.49665        0.66521
H         -2.56170       -0.24009       -2.23886
H         -2.59165        1.47648       -1.80435
H         -1.03862        0.71524       -2.23827
H          2.85927       -2.10166       -1.97920
H          3.39161       -3.04230       -0.56229
H         -4.31776       -1.59536       -1.85050
H         -4.32047       -3.24468       -1.14240
H         -5.35630       -1.96358       -0.44556
H          2.26305       -0.11249       -2.71166
H          2.40435        1.64218       -2.40494
H          3.88256        0.61288       -2.46630
H         -2.56593        0.50403        2.24018
H          2.97567        2.58457       -0.16423
H         -0.10688        2.95343       -1.29026
H          5.12698       -1.91512        0.62526
H         -4.48151        1.71538        2.02216
H         -5.36890        0.17830        2.07869
H          5.04905        2.42439        1.20536
H         -6.19778        1.70073       -0.01435
