18
CAPROLACTONE.gamout
O         -2.24088       -0.38109        0.59278
C         -0.43405       -1.05106       -0.89062
C          0.82658       -1.58259       -0.16055
C          0.53335        1.53831       -0.50415
C          1.54458       -0.53001        0.70581
C          1.79897        0.84540        0.05395
C         -1.22282       -0.09671        0.00020
O         -0.68299        1.15896        0.17163
H         -0.13530       -0.51435       -1.81507
H         -1.10291       -1.87698       -1.19793
H          0.53144       -2.42852        0.49666
H          1.52426       -2.00894       -0.91370
H          0.58857        2.63677       -0.36916
H          0.42465        1.35323       -1.59503
H          0.95887       -0.36409        1.63624
H          2.52084       -0.93891        1.04362
H          2.53776        0.74671       -0.77166
H          2.26271        1.49510        0.82610
