55
CORTEXOLONE.gamout
O         -3.04997        0.06814       -1.98433
O         -5.13463        0.05217        0.90366
O         -6.10611       -2.11985       -0.17752
O          6.48337       -0.53513       -1.17238
C         -1.93869       -0.03461        0.17326
C         -1.00736        1.13629       -0.26117
C          0.40711        1.05441        0.33256
C          1.05626       -0.30166       -0.07451
C         -3.25637        0.39677       -0.60240
C         -1.29915       -1.35571       -0.29458
C          2.53771       -0.48552        0.44840
C          0.13705       -1.50412        0.25500
C         -1.86018        2.39910       -0.03526
C         -3.31003        1.93818       -0.36909
C          1.28731        2.23006       -0.12284
C         -2.20311       -0.06876        1.69455
C          3.34864        0.77017        0.09365
C          2.71885        2.10321        0.42213
C          3.16275       -1.72636       -0.25152
C          2.58123       -0.67330        1.99114
C         -4.51660       -0.31637       -0.09436
C          4.69125       -1.80392       -0.15123
C          4.59410        0.71266       -0.46052
C          5.36104       -0.53440       -0.66854
C         -5.03703       -1.53268       -0.85371
H         -0.89550        1.01676       -1.36331
H          0.33007        1.09940        1.44500
H          1.14291       -0.26365       -1.18824
H         -1.27723       -1.36598       -1.40391
H         -1.90608       -2.23093        0.02642
H          0.09755       -1.65454        1.35533
H          0.57382       -2.43498       -0.16192
H         -1.53687        3.25018       -0.66734
H         -1.79160        2.73899        1.02035
H         -4.02665        2.15963        0.44607
H         -3.70969        2.42898       -1.28328
H          0.84711        3.19588        0.20529
H          1.31383        2.25677       -1.23652
H         -2.82327       -0.94712        1.96575
H         -1.25760       -0.14613        2.26614
H         -2.74190        0.82572        2.06210
H          2.68027        2.20967        1.53192
H          3.36452        2.92720        0.05433
H          2.88545       -1.69083       -1.32933
H          2.71092       -2.65346        0.15804
H          2.06715       -1.60830        2.29270
H          3.62699       -0.73279        2.35625
H          2.09554        0.16535        2.52938
H         -3.60487        0.67319       -2.51167
H          5.10177       -2.66982       -0.70935
H          5.01438       -1.93591        0.90732
H          5.13002        1.64017       -0.72751
H         -4.18900       -2.24291       -1.01709
H         -5.31238       -1.18191       -1.88279
H         -6.27805       -1.49964        0.57356
