59
CORTISONE_ACETATE.gamout
O         -2.33220        1.12813       -2.14836
O          0.63121       -2.34734        0.27698
O         -4.58225        1.25540        0.53804
O         -5.63564       -0.94187       -0.61315
O          7.08886       -1.16697       -0.86030
O         -4.52154       -1.90044        1.12350
C         -0.18233        1.61582       -0.20151
C         -1.30052        0.55103       -0.03072
C          1.16988        1.21196        0.41899
C          1.64774       -0.15885       -0.17075
C         -2.50344        1.29815       -0.73024
C          3.03933       -0.65743        0.37139
C         -0.85631        2.93303        0.22291
C         -0.83062       -0.73979       -0.72272
C         -2.31691        2.77921       -0.28802
C          2.25510        2.27175        0.17377
C          0.50772       -1.20511       -0.14559
C         -1.64027        0.24344        1.43646
C          4.05737        0.47800        0.25914
C          3.62148        1.84278        0.73391
C          3.52122       -1.86900       -0.47348
C         -3.89549        0.74876       -0.33323
C          2.93282       -1.05298        1.86588
C          4.99635       -2.23440       -0.27357
C          5.33539        0.27246       -0.17074
C          5.92097       -1.04751       -0.49210
C         -4.39024       -0.48034       -1.11601
C         -5.56975       -1.60180        0.58262
C         -6.95448       -1.89341        1.09702
H         -0.01817        1.68809       -1.30227
H          1.03969        1.09604        1.51920
H          1.78810        0.04222       -1.26124
H         -0.36103        3.82043       -0.21545
H         -0.83349        3.06068        1.32661
H         -0.70644       -0.53889       -1.80754
H         -1.53808       -1.58066       -0.59358
H         -3.07073        3.03245        0.48300
H         -2.51834        3.44178       -1.15797
H          1.95879        3.23944        0.62709
H          2.34643        2.44685       -0.92283
H         -0.75580       -0.14610        1.97646
H         -2.00309        1.13278        1.98587
H         -2.42465       -0.53637        1.49955
H          3.55796        1.81866        1.84790
H          4.39612        2.59598        0.48942
H          3.36724       -1.62607       -1.54903
H          2.87575       -2.73576       -0.24958
H          3.91281       -1.39967        2.24632
H          2.61934       -0.19951        2.49835
H          2.19289       -1.86498        1.98183
H         -2.76442        1.88780       -2.58312
H          5.30944       -3.04638       -0.95788
H          5.18338       -2.61656        0.75707
H          6.04041        1.11719       -0.23443
H         -3.61646       -1.27576       -1.07284
H         -4.54584       -0.21340       -2.17903
H         -7.50524       -2.52566        0.37194
H         -7.51749       -0.94411        1.19759
H         -6.88740       -2.40424        2.07295
