30
CYTARABINE.gamout
O          0.51766        2.50031        2.21835
O          0.46430        2.78777       -0.90715
O         -0.23289        5.37160        1.44835
O         -1.51171        0.71413        2.19829
O          4.01332        3.44670        0.44220
N          2.38970        1.87599        0.89330
N          4.56466        1.22987        0.09096
N          5.03350       -0.97875       -0.34263
C          0.78461        3.67716        0.14789
C         -0.52187        4.13140        0.82127
C          1.52617        2.97930        1.33258
C         -0.79066        3.00114        1.83386
C         -1.61359        1.81643        1.30793
C          1.95084        0.58767        0.82006
C          3.73135        2.24889        0.45809
C          2.78737       -0.41619        0.39368
C          4.13620       -0.03010        0.05314
H          1.36724        4.55603       -0.20210
H         -1.33657        4.21127        0.06178
H          2.18812        3.71038        1.84112
H         -1.25886        3.39559        2.76510
H         -1.25752        1.56056        0.28155
H         -2.68517        2.10635        1.23668
H          1.29597        2.55671       -1.36345
H         -0.98226        5.59748        2.03052
H          0.91737        0.40239        1.14690
H         -0.61178        0.78261        2.58188
H          2.43863       -1.45648        0.34241
H          4.82099       -1.97167       -0.27814
H          5.99870       -0.68074       -0.49047
