57
DEXAMETHASONE.gamout
F          1.39182        0.03284        1.31756
O         -2.93151       -0.39236        1.88842
O          0.48656        2.13613       -1.43028
O         -4.88335        0.61072       -0.92581
O         -5.95968        2.22951        0.80808
O          6.36237        0.31934        1.52298
C         -1.77226        0.16530       -0.26328
C         -0.90273       -1.10010       -0.02851
C          0.52165       -1.01233       -0.62744
C          1.25184        0.24927       -0.08162
C         -3.10667       -0.30752        0.47068
C         -1.83241       -2.26920       -0.41334
C         -1.04638        1.36525        0.36874
C         -3.27833       -1.77150       -0.07434
C          0.41005        1.56476       -0.12618
C          2.73732        0.37929       -0.63960
C          1.34402       -2.27749       -0.30375
C         -2.03434        0.42958       -1.75577
C          2.81845       -2.18060       -0.74235
C          3.46234       -0.90491       -0.26554
C         -4.33160        0.57130        0.17332
C         -4.04871       -2.69698        0.87202
C          2.79483        0.51859       -2.19108
C          3.41917        1.61228       -0.09486
C          4.62909       -0.89334        0.42872
C         -4.91415        1.44296        1.28805
C          4.58735        1.60003        0.58422
C          5.29116        0.33839        0.90656
H         -0.76594       -1.15754        1.07187
H          0.44850       -0.90150       -1.73187
H         -1.75089       -2.52340       -1.49206
H         -1.59103       -3.19232        0.15069
H         -0.95968        1.22437        1.46876
H         -1.59515        2.31904        0.20618
H         -3.86126       -1.66980       -1.01250
H          0.90901        2.23499        0.61098
H          0.87534       -3.16016       -0.78270
H          1.30878       -2.44921        0.79276
H         -2.53525       -0.41984       -2.25180
H         -2.68972        1.31072       -1.89392
H         -1.08668        0.64046       -2.28069
H          2.87350       -2.22987       -1.85435
H          3.38496       -3.05367       -0.36423
H         -5.07489       -2.32410        1.06723
H         -4.14244       -3.70258        0.41475
H         -3.53216       -2.80298        1.84689
H          2.22691       -0.28182       -2.70042
H          2.37837        1.48787       -2.51226
H          3.85141        0.44924       -2.51688
H         -2.43223        0.39173        2.18837
H          2.95256        2.57529       -0.35844
H         -0.06047        2.94488       -1.42918
H          5.15373       -1.83309        0.66251
H         -4.08629        2.06372        1.72203
H         -5.22491        0.76005        2.11965
H          5.07722        2.52945        0.91335
H         -6.06743        1.92655       -0.12808
