20
DIALLYLANION-1.gamout
C         -5.60940        1.66985        0.21678
C         -4.37834        2.16278        0.46583
C         -3.12999        1.72794       -0.27934
C         -0.70555        1.73053       -0.33840
C          0.56323        2.16719        0.37507
C          1.78635        1.67872        0.08694
N         -1.90977        2.43474        0.06788
H         -0.86308        0.64410       -0.12909
H         -0.52538        1.79752       -1.44773
H         -3.34925        1.77561       -1.38247
H         -2.96498        0.64568       -0.06463
C         -1.90517        3.90014       -0.18845
O         -3.04002        4.44356       -0.20551
O         -0.76087        4.40378       -0.34012
H         -6.49782        1.99113        0.77708
H         -5.78445        0.94182       -0.59929
H         -4.22713        2.91097        1.26480
H          2.69107        2.00384        0.63406
H          1.93896        0.95506       -0.73415
H          0.43131        2.90453        1.18151
