29
DICLOFENAC-1.gamout
C         -1.58396       -4.41072        0.51067
C         -0.23939       -4.36805        0.10219
C         -2.42768       -3.33184        0.22801
C         -2.00318       -2.15395       -0.47499
C         -0.64350       -2.19265       -0.93179
C          0.21871       -3.25659       -0.62404
Cl        -0.04169       -0.94398       -2.00009
Cl        -4.10994       -3.41742        0.75846
H         -1.98833       -5.27236        1.06193
H          0.43943       -5.20372        0.33038
H          1.24984       -3.21359       -1.00589
N         -2.89404       -1.13642       -0.71800
H         -3.87790       -1.42450       -0.69384
C         -2.71248        0.27158       -0.67883
C         -1.66577        0.84364        0.07926
C         -1.53570        2.23719        0.17491
C         -2.46629        3.06701       -0.48110
C         -3.67834        1.09564       -1.33565
C         -3.52035        2.50076       -1.21147
C         -4.79529        0.54583       -2.16462
C         -4.82332        1.07410       -3.72426
H         -5.77524        0.88472       -1.76050
H         -4.80098       -0.56108       -2.20748
H         -4.23073        3.11689       -1.78591
H         -2.36501        4.16417       -0.42562
H         -0.71394        2.66960        0.77000
H         -0.96550        0.18405        0.61571
O         -4.86906        2.32324       -3.83629
O         -4.84485        0.15384       -4.57032
