20
DXYLOSE.gamout
C         -1.09483        1.02985        0.07479
C         -0.46704       -0.29664       -0.41409
O         -0.12941        2.08703        0.18049
H         -1.59240        0.83092        1.05150
H         -1.87052        1.39859       -0.62461
C          0.98799       -0.40815        0.15259
H         -0.40463       -0.32156       -1.52991
O         -1.25144       -1.37166        0.06221
H          1.69129        0.06360       -0.57757
C          1.07113        0.38278        1.45491
O          1.30659       -1.77286        0.35465
C          0.88590        1.87268        1.14604
O          2.31317        0.08173        2.07617
H          0.22213        0.06436        2.10948
H          1.82595        2.26871        0.69007
O          0.62131        2.50044        2.38557
H          0.63970        3.46536        2.23666
H          2.32025        0.54084        2.93813
H          1.95278       -1.77584        1.09409
H         -0.58845       -2.05312        0.32360
