35
FAMOTIDINE.gamout
S          1.04533       -3.34727        0.72592
S          1.62520        2.69973        0.53179
S         -3.76205       -1.88964        0.95484
O          1.19799        2.50580        1.94458
O          0.72492        3.43671       -0.40439
N          2.11485        1.28731       -0.21188
N         -1.49423       -1.34216       -0.22303
N          1.13416       -0.20665        1.38075
N         -2.81916        0.59254        0.40920
N          3.02473        3.64963        0.56517
N         -2.16005        2.80225        0.18811
N         -1.02163        1.18579       -1.03853
C          2.07068       -1.04164       -0.74452
C          2.37094       -2.44654       -0.19580
C         -0.36213       -3.52056       -0.49107
C          1.75680        0.08418        0.23366
C         -1.55321       -2.71025       -0.07584
C         -2.69248       -3.20050        0.53401
C         -2.56690       -0.72219        0.28626
C         -1.99662        1.48830       -0.14407
H          1.20727       -1.08803       -1.44495
H          2.93881       -0.69926       -1.34364
H          2.67726       -3.09361       -1.04448
H          3.21450       -2.42807        0.52583
H         -0.60063       -4.60166       -0.53358
H          0.00421       -3.21506       -1.49349
H         -2.93614       -4.24246        0.77637
H          0.76791       -1.16648        1.50881
H          0.84351        0.57702        1.98322
H          3.24715        3.92433       -0.40275
H          3.81070        3.10739        0.95230
H         -2.79052        2.99072        0.96693
H         -1.36792        3.43303        0.02404
H         -0.34123        1.90296       -1.30281
H         -0.85666        0.17402       -1.16705
