67
FLUOCINONIDE.gamout
F          2.04585        0.11834       -1.22212
F          4.64518        2.34358        1.30296
O         -2.26958        1.07142       -1.48298
O         -2.02918        3.11143       -0.50529
O          0.77160       -2.59510        0.73459
O         -4.28616        0.36196        1.31037
O         -5.45900       -1.43699       -0.34729
O          6.72343       -0.68328       -2.01205
O         -4.22890       -2.85231        0.94198
C         -1.10170       -0.07112        0.38995
C         -0.03238        1.05243        0.54330
C          1.34284        0.54822        1.01029
C         -2.34575        0.80006       -0.07935
C          1.85452       -0.53578        0.02086
C         -2.12809        2.20653        0.60202
C         -0.76857        2.15036        1.32538
C         -0.58094       -1.06545       -0.66412
C          0.81452       -1.63949       -0.32709
C          3.29529       -1.07455        0.43025
C          2.35708        1.70888        1.09648
C         -1.44410       -0.77403        1.72520
C          3.78936        1.24606        1.39186
C         -3.69575        0.14555        0.26439
C         -2.53776        2.48155       -1.67631
C          4.21142        0.14668        0.44569
C          3.33206       -1.74952        1.84053
C          3.75452       -2.12065       -0.56166
C         -4.25295       -0.82407       -0.78709
C         -4.04801        2.74055       -1.81810
C         -1.74146        2.95777       -2.88594
C          5.31319        0.25800       -0.33810
C          4.85684       -2.00180       -1.33595
C          5.72210       -0.79414       -1.29737
C         -5.31312       -2.42568        0.58745
C         -6.66166       -2.90457        1.06848
H          0.11867        1.45809       -0.48205
H          1.23771        0.07162        2.00887
H         -2.97680        2.47464        1.26716
H         -0.90326        1.87899        2.39325
H         -0.28294        3.14489        1.28217
H         -0.52432       -0.55172       -1.64438
H         -1.27231       -1.93061       -0.79654
H          1.20445       -2.12068       -1.25607
H          2.04729        2.43763        1.87317
H          2.37908        2.24110        0.12273
H         -1.91683       -0.08745        2.45434
H         -2.16965       -1.59644        1.55508
H         -0.54189       -1.21945        2.18332
H          3.85848        0.87433        2.44183
H          2.74102       -2.68157        1.84180
H          4.38567       -1.98280        2.09499
H          2.92760       -1.09250        2.63545
H          3.15647       -3.04813       -0.58257
H         -0.02709       -3.14117        0.60535
H         -3.47703       -1.58245       -1.03049
H         -4.48701       -0.26673       -1.71443
H         -4.45471        2.24537       -2.72323
H         -4.60531        2.37541       -0.93152
H         -4.23208        3.83009       -1.90462
H         -0.66567        2.74705       -2.73311
H         -2.08427        2.43971       -3.80304
H         -1.87649        4.04853       -3.02290
H          5.94797        1.15535       -0.28717
H          5.17489       -2.80163       -2.02431
H         -7.21356       -2.05692        1.52185
H         -6.52738       -3.71062        1.81099
H         -7.26420       -3.27130        0.21272
