20
HISTIDINE.gamout
O         -2.34588       -1.75405       -0.57698
O         -1.32499       -1.09497        1.32439
N          1.40218       -0.35273        0.84773
N         -2.80345        1.15989       -0.56464
N          3.20531        0.17119       -0.36506
C         -0.34965        1.32100        0.08862
C         -1.50010        0.48994       -0.54392
C          1.02181        0.71446        0.04560
C         -1.69268       -0.85229        0.18152
C          2.16637        1.01531       -0.69134
C          2.71268       -0.64125        0.56025
H         -0.63746        1.54594        1.14094
H         -0.31619        2.29158       -0.44863
H         -1.23757        0.23846       -1.59415
H          0.75354       -0.84659        1.47164
H          2.28144        1.81402       -1.43773
H         -2.79502        1.92828       -1.24713
H         -2.99372        1.58556        0.35353
H          3.25492       -1.45918        1.05480
H         -2.45740       -2.55376       -0.01465
