79
HYDROCORTISONE_METHYLPIMELATE.gamout
O          0.62139       -1.06937        1.42982
O         -2.85656       -0.76366       -2.44779
O          2.85666        0.00183       -1.05776
O          3.55422       -2.66788       -0.33798
O         -8.62436       -0.89130        1.63845
O          3.27560       -1.87111        1.76657
O          6.07529        2.10824       -1.94913
O          5.52624        2.83438        0.13399
C         -0.49073       -0.07470       -0.49186
C         -1.28870        0.82063        0.49850
C         -2.72496        1.14769        0.05178
C         -3.49431       -0.19033       -0.16374
C          0.86055       -0.18904        0.33382
C         -1.26338       -1.39477       -0.66782
C         -5.03618       -0.02246       -0.49004
C         -2.74384       -1.19246       -1.08091
C         -0.30946        1.95691        0.85600
C          1.09124        1.27732        0.81974
C         -3.43327        1.98711        1.13187
C         -0.22722        0.61313       -1.84966
C         -5.64523        0.88435        0.59000
C         -4.92934        2.18898        0.84114
C         -5.70207       -1.42582       -0.44381
C         -5.31262        0.65153       -1.86540
C          2.04124       -0.71762       -0.49949
C         -7.22734       -1.39039       -0.27853
C         -6.79035        0.57132        1.26299
C         -7.63571       -0.60452        0.96459
C          2.19583       -2.25862       -0.62134
C          3.97625       -2.41848        0.91890
C          5.40579       -2.85608        1.16534
C          6.28640       -1.66727        1.60782
C          6.50877       -0.63322        0.49366
C          7.36306        0.56559        0.93288
C          7.59631        1.59532       -0.18947
C          6.29294        2.25671       -0.61680
C          4.83053        2.64326       -2.43736
H         -1.39452        0.20162        1.41960
H         -2.70489        1.72810       -0.89851
H         -3.47280       -0.68455        0.83772
H         -1.23286       -1.95720        0.28887
H         -0.78466       -2.04902       -1.43520
H         -3.24434       -2.18392       -0.96790
H         -0.52918        2.39864        1.84830
H         -0.37015        2.78503        0.11710
H          1.79746        1.79776        0.14451
H          1.57282        1.23529        1.81628
H         -2.93662        2.97434        1.24187
H         -3.32105        1.46553        2.11040
H          0.36868        1.54156       -1.75079
H         -1.18157        0.84803       -2.35571
H          0.33774       -0.05948       -2.52975
H         -5.03040        2.82100       -0.07164
H         -5.42236        2.74496        1.66513
H         -5.27713       -1.98964        0.41776
H         -5.43207       -1.99263       -1.35927
H         -6.39613        0.86420       -1.97801
H         -4.97858       -0.00073       -2.69153
H         -4.77626        1.61483       -1.97462
H          1.50894       -1.33659        1.77415
H         -7.66603       -2.40651       -0.21255
H         -7.70623       -0.89547       -1.15473
H         -2.44050       -1.45060       -3.00228
H         -7.17315        1.24133        2.05258
H          2.02887       -2.54519       -1.67799
H          1.48892       -2.79417        0.04032
H          5.36240       -3.61676        1.97492
H          5.81158       -3.34728        0.25866
H          5.80969       -1.18793        2.49007
H          7.26616       -2.06448        1.95310
H          6.99023       -1.13381       -0.37771
H          5.52501       -0.26670        0.12226
H          6.86910        1.08209        1.78479
H          8.34989        0.20977        1.30381
H          8.26879        2.40031        0.17821
H          8.08190        1.12894       -1.07055
H          4.85949        2.52154       -3.53585
H          4.72655        3.71442       -2.16927
H          3.97816        2.07752       -2.01021
