74
HYDROCORTISONE_N,N-DIMETHYLSUCCINAMAT.gamout
O          0.51370       -1.38200       -1.28420
O         -2.52210        0.84130        2.31100
O          2.09230       -2.92600        1.22430
O          3.64280       -0.75690        0.42070
O         -7.43370        2.93840       -2.27810
O          4.35320        1.30220        0.95570
O          8.44890       -0.27160       -1.21780
N          9.27280        1.76640       -0.73180
C         -0.91300       -1.20880        0.67250
C         -2.05440       -1.73490       -0.22170
C         -3.45920       -1.21150        0.17390
C         -3.44970        0.35810        0.09060
C          0.29680       -1.94210       -0.00510
C         -0.91450        0.34600        0.56620
C         -4.88120        0.99940        0.34170
C         -2.28280        0.97860        0.93770
C         -1.81630       -3.24230       -0.25790
C         -0.27730       -3.38580       -0.19740
C         -4.51410       -1.78890       -0.79990
C         -1.02760       -1.65620        2.17140
C         -5.89600        0.24880       -0.54560
C         -5.90620       -1.26040       -0.48110
C         -4.80550        2.52070       -0.05000
C         -5.36960        0.85560        1.80740
C          1.61630       -1.89690        0.76680
C         -6.18340        3.12830       -0.27510
C         -6.76030        0.88830       -1.36660
C         -6.83840        2.35960       -1.38290
C          2.37960       -0.61700        0.95840
C          4.58830        0.21620        0.44090
C          5.92960       -0.07070       -0.18220
C          6.90770        1.11540       -0.08940
C          8.26280        0.82970       -0.71570
C          9.12550        3.09690       -0.15470
C         10.56530        1.47110       -1.33770
H         -1.87260       -1.37580       -1.26350
H         -3.70760       -1.54060        1.20390
H         -3.19900        0.58430       -0.97260
H         -0.71020        0.63490       -0.48790
H         -0.12200        0.79570        1.19750
H         -2.22060        2.06450        0.69980
H         -2.28910       -3.75820       -1.12030
H         -2.24400       -3.67910        0.67150
H         -0.06380       -4.03910        0.67680
H          0.16330       -3.89200       -1.08300
H         -4.53470       -2.89740       -0.72880
H         -4.25710       -1.51190       -1.84700
H         -0.97800       -2.75270        2.30800
H         -1.97080       -1.35770        2.65590
H         -0.18930       -1.22520        2.75820
H         -6.19520       -1.58780        0.53930
H         -6.64130       -1.70130       -1.18950
H         -4.25680        2.63850       -1.01220
H         -4.25360        3.09880        0.72140
H         -4.77050        1.46910        2.50630
H         -5.34350       -0.19620        2.15440
H         -6.41680        1.20610        1.91290
H          1.21350       -1.91880       -1.74200
H         -6.12660        4.20970       -0.52640
H         -6.78210        3.02640        0.65220
H         -1.95240        1.50870        2.77590
H         -7.42220        0.32630       -2.01970
H          2.45580       -0.40170        2.04650
H          1.87000        0.22550        0.45140
H          5.76660       -0.32810       -1.25120
H          6.37050       -0.94980        0.33600
H          6.45290        1.98560       -0.61130
H          7.05910        1.36060        0.98450
H          9.28340        3.86390       -0.94240
H          8.13360        3.28640        0.29570
H          9.88450        3.24270        0.64300
H         11.36680        1.56750       -0.57470
H         10.62680        0.44740       -1.76200
H         10.76510        2.18910       -2.16130
