64
HYDROCORTISONE_21-PROPIONATE.gamout
O          1.88394       -1.25034       -2.14952
O         -0.69145        1.77312        1.22551
O          4.18509       -1.42711        0.51713
O          5.41811        0.48195       -0.93119
O         -7.30238        1.48969       -1.01446
O          5.01817        1.84672        0.85340
C          0.94744       -0.62364        0.01375
C         -0.21419       -1.65041       -0.14930
C         -1.56329       -1.21049        0.44431
C         -1.96639        0.18083       -0.12178
C          2.09358       -1.42259       -0.73834
C          0.50044        0.69065       -0.65341
C         -3.36854        0.69860        0.40593
C         -0.83331        1.23980       -0.09886
C          0.41268       -2.99098        0.26942
C          1.86665       -2.89225       -0.27702
C         -2.65561       -2.23255        0.06380
C          1.35262       -0.40807        1.49019
C         -4.41290       -0.38572        0.10912
C         -4.06077       -1.79992        0.51314
C         -3.73465        2.00046       -0.35522
C         -3.39313        0.94666        1.94400
C          3.51250       -0.91755       -0.36551
C         -5.20593        2.41085       -0.23019
C         -5.65054       -0.09161       -0.38491
C         -6.16031        1.27947       -0.60762
C          4.01654        0.31111       -1.12396
C          5.79758        1.23571        0.14395
C          7.30912        1.22893        0.28560
C          7.81137        2.06932        1.45704
H         -0.38158       -1.72728       -1.24960
H         -1.49442       -1.17363        1.55522
H         -2.12678        0.00029       -1.21303
H          0.37939        0.51339       -1.74217
H          1.27456        1.48698       -0.54697
H         -1.14886        2.06470       -0.78278
H         -0.13524       -3.85556       -0.15643
H          0.40322       -3.11701        1.37305
H          2.62464       -3.15539        0.48646
H          2.02580       -3.58837       -1.12930
H         -2.42098       -3.22623        0.50170
H         -2.65658       -2.36171       -1.04284
H          1.76342       -1.32407        1.95698
H          2.14789        0.36411        1.57094
H          0.49196       -0.04882        2.08370
H         -4.11251       -1.86351        1.62535
H         -4.83439       -2.49702        0.12915
H         -3.49478        1.85025       -1.43253
H         -3.08482        2.82871       -0.00224
H         -3.10211        0.04157        2.51312
H         -2.68720        1.75214        2.21436
H         -4.41703        1.22153        2.26936
H          2.25798       -2.03373       -2.59526
H         -5.43797        3.28551       -0.87227
H         -5.45454        2.71651        0.81138
H          0.17502        2.22079        1.26966
H         -6.38201       -0.89250       -0.59091
H          3.48050        1.20873       -0.73762
H          3.81091        0.22391       -2.20776
H          7.61787        0.16238        0.35768
H          7.72354        1.57677       -0.68612
H          7.41748        1.69216        2.42129
H          8.91869        2.06103        1.50641
H          7.47570        3.12190        1.35903
