77
HYDROCORTISONE_PIMELAMATE.gamout
O         -0.97680       -2.53213       -2.43044
O         -1.61571        1.75065        0.45489
O          1.85491       -2.97321       -0.41724
O          3.07093       -1.52146       -2.32349
O         -8.40882        3.16599        0.01845
O          2.88921        0.11379       -0.75515
O          9.45287        2.54053        2.61333
N         11.47219        1.90740        1.77121
C         -1.08502       -1.26372       -0.34579
C         -2.46553       -1.86821        0.02515
C         -3.39560       -0.91106        0.80108
C         -3.59976        0.40100       -0.01322
C         -0.44170       -2.50252       -1.09404
C         -1.35064       -0.03387       -1.22399
C         -4.56963        1.44182        0.67967
C         -2.28696        1.01154       -0.57406
C         -2.12149       -3.25083        0.60957
C         -0.90820       -3.71867       -0.24410
C         -4.76984       -1.55972        1.05358
C         -0.22510       -0.90938        0.87908
C         -5.89186        0.73584        0.96537
C         -5.79814       -0.59383        1.67246
C         -4.80576        2.63738       -0.27708
C         -4.03471        1.96240        2.03967
C          1.09951       -2.41705       -1.19707
C         -6.01477        3.50814        0.07745
C         -7.10126        1.30292        0.69031
C         -7.29146        2.69064        0.21812
C          1.65297       -1.58303       -2.36639
C          3.58014       -0.65510       -1.40092
C          5.08885       -0.76941       -1.34248
C          5.72325        0.06303       -0.22201
C          7.26051        0.12561       -0.29879
C          7.92088        0.95915        0.81506
C          9.45047        1.01038        0.71580
C         10.09823        1.89111        1.79505
H         -2.95951       -2.06152       -0.95605
H         -2.92265       -0.67182        1.78095
H         -4.14616        0.08209       -0.93302
H         -1.78563       -0.37491       -2.18452
H         -0.40303        0.49225       -1.47760
H         -2.58303        1.71358       -1.38920
H         -2.96822       -3.95932        0.53896
H         -1.84426       -3.17919        1.68347
H         -0.06179       -4.07507        0.37531
H         -1.17776       -4.55823       -0.92149
H         -4.67301       -2.44971        1.70997
H         -5.17175       -1.92850        0.08161
H          0.00455       -1.79181        1.50459
H         -0.73267       -0.15438        1.50392
H          0.73966       -0.47031        0.55669
H         -5.51221       -0.39177        2.73197
H         -6.79604       -1.07452        1.71381
H         -4.95377        2.24249       -1.30728
H         -3.88977        3.25756       -0.30523
H         -3.11996        2.56042        1.88873
H         -3.78068        1.13266        2.72585
H         -4.80833        2.57810        2.54072
H         -0.90529       -3.45315       -2.74604
H         -6.19169        4.29064       -0.68515
H         -5.85737        4.04640        1.04064
H         -0.72413        1.96601        0.11962
H         -8.03341        0.75637        0.90650
H          1.20654       -0.56743       -2.33893
H          1.37013       -2.05212       -3.32809
H          5.47171       -0.46354       -2.34294
H          5.33530       -1.84975       -1.25619
H          5.40648       -0.35606        0.75874
H          5.29098        1.08587       -0.25507
H          7.55642        0.54020       -1.29160
H          7.67017       -0.91163       -0.27714
H          7.52992        1.99945        0.80423
H          7.63867        0.55758        1.81294
H          9.88263       -0.01442        0.78258
H          9.76454        1.40163       -0.28012
H         12.02270        1.36744        1.10507
H         11.95577        2.47698        2.46631
