24
MANNOSE.gamout
C        -10.04413       -0.17313       -0.30445
C        -11.40362        0.44748        0.13824
C        -11.34310        2.01027        0.18320
O        -11.71825       -0.05587        1.42945
H        -12.20878        0.12064       -0.55607
O        -11.09165        2.37023        1.53441
H        -12.33347        2.43184       -0.11992
C        -10.24705        2.61173       -0.73770
C         -8.87809        1.85952       -0.62094
O        -10.06334        3.99399       -0.34276
H        -10.60657        2.56872       -1.78992
C         -7.74441        2.71235       -0.00987
H         -8.54520        1.60837       -1.66138
O         -8.97198        0.67759        0.15534
H         -9.95690       -0.26769       -1.41723
O         -9.90680       -1.43110        0.23710
H        -10.39402       -1.36296        1.09611
H        -11.41755        0.65876        2.04252
H        -10.52158        3.16610        1.52792
H        -10.72943        4.53010       -0.81271
H         -6.88069        2.02960        0.12409
O         -7.34598        3.75734       -0.87203
H         -8.06047        3.08176        0.99477
H         -8.05547        4.42326       -0.78176
