57
METHYL_OLEATE.gamout
C         15.16695       -1.41853        0.23113
O         14.51562       -2.58474        0.75918
O         12.76618       -2.28854       -0.67271
H         15.92640       -1.72318       -0.51958
H         15.66559       -0.90884        1.07759
H         14.42999       -0.74937       -0.25502
C         13.31092       -2.91893        0.21510
C         11.48476       -4.70703        0.21891
H         13.56376       -4.92621        0.92301
C         12.75419       -4.16408        0.88648
H         -1.13556      -15.43185        1.41765
H         12.56942       -3.90129        1.95366
H         -2.46893      -15.92681       -0.67773
H          0.07905      -16.63382        0.93298
H          6.48983      -10.75727       -0.79771
C         10.91282       -5.95864        0.90495
H         11.70617       -4.92562       -0.84938
H         10.72124       -3.89928        0.19402
C          9.68525       -6.55678        0.18992
H         10.63744       -5.70866        1.95646
H         11.70756       -6.73670        0.98368
C          9.04591       -7.75191        0.92243
H          9.98072       -6.87094       -0.83813
H          8.91904       -5.75982        0.04957
C          7.87199       -8.40378        0.16902
H          8.69541       -7.41759        1.92671
H          9.82583       -8.52370        1.12120
C          7.19904       -9.56184        0.94163
H          8.22803       -8.77695       -0.81906
H          7.10153       -7.63346       -0.06304
C          6.14724      -10.30433        0.15505
H          7.99172      -10.28275        1.25722
H          6.75637       -9.17169        1.88548
C          4.85071      -10.44794        0.50282
H         -1.25013      -17.11723       -1.17504
C         -2.45497      -17.73903        0.52874
H         -3.22191      -18.25858       -0.08162
H         -2.97045      -17.30587        1.41274
C          3.80437      -11.19725       -0.28651
H         -1.74785      -18.51003        0.90324
H          4.50542       -9.98835        1.45130
C          3.04547      -12.27262        0.52645
H          3.05538      -10.46879       -0.68167
H          4.27438      -11.66132       -1.18226
C          1.94632      -13.00069       -0.27182
H          3.77638      -13.01623        0.91805
H          2.59238      -11.79209        1.42420
C          1.17815      -14.07183        0.53090
H          1.21956      -12.25079       -0.66279
H          2.40288      -13.47234       -1.17279
C          0.09221      -14.81704       -0.27221
H          0.70688      -13.58805        1.41780
H          1.90137      -14.81304        0.94372
C         -0.65661      -15.90097        0.52687
H          0.55607      -15.27944       -1.17438
H         -0.64694      -14.07851       -0.66151
C         -1.72768      -16.65709       -0.27993
