33
METRONIDAZOLE_BENZOATE.gamout
O         -1.11204        0.26867        0.03630
O          4.41895        2.42763        0.77632
O          2.25229        2.16826        1.05611
O         -1.75962        1.19466       -1.93341
N          2.48350       -0.54484        0.24664
N          4.36261       -1.52340       -0.52822
N          3.38402        1.75378        0.74095
C          1.08010       -0.39538        0.64318
C          3.05981       -1.69065       -0.26434
C          0.23348        0.23543       -0.46444
C          3.51617        0.39618        0.29868
C          4.65864       -0.24079       -0.18433
C          2.31888       -2.97308       -0.47071
C         -2.04295        0.79713       -0.81593
C         -3.41305        0.81791       -0.21731
C         -3.68329        0.33557        1.08269
C         -4.46302        1.34536       -1.00153
C         -4.99183        0.37969        1.58837
C         -5.76871        1.38768       -0.49171
C         -6.03482        0.90440        0.80298
H          0.69161       -1.40197        0.89388
H          1.03201        0.23638        1.54842
H          0.58587        1.26343       -0.68805
H          0.27435       -0.35363       -1.40663
H          5.65732        0.20003       -0.28958
H          1.45513       -2.85832       -1.15906
H          3.02396       -3.70129       -0.91145
H          1.93518       -3.39339        0.48386
H         -2.86158       -0.06897        1.69084
H         -4.22717        1.71632       -2.01067
H         -5.20052        0.00284        2.60205
H         -6.58527        1.79895       -1.10589
H         -7.06070        0.93885        1.20337
