40
MORPHINE.gamout
O         -1.97638       -0.47387        1.21708
O         -2.77162       -2.58404       -0.18920
O         -3.70824        1.80841        0.42281
N          3.17639        0.00119        0.47108
C          0.37625       -0.70058        0.68911
C          1.30066       -1.30119       -0.40382
C          2.35794       -0.20549       -0.73872
C         -0.91998       -1.48698        1.04483
C          1.22950       -0.38262        1.94533
C         -0.24099        0.54857        0.09489
C          1.72660        1.09772       -1.34386
C          2.42102        0.52250        1.60936
C          0.35136        1.44199       -0.79940
C         -1.36134       -2.52931       -0.04314
C          0.49111       -1.79163       -1.57905
C         -1.57646        0.62463        0.47525
C         -0.73825       -2.31495       -1.40498
C          4.42388        0.70639        0.24161
C         -0.45984        2.52442       -1.22097
C         -2.39327        1.69225        0.06884
C         -1.78980        2.65504       -0.77609
H          1.88384       -2.14679        0.03229
H          3.04465       -0.62617       -1.50577
H         -0.85068       -1.99172        2.02981
H          1.60191       -1.34336        2.36590
H          0.59594        0.10045        2.71978
H          1.65125        0.98383       -2.44882
H          2.44049        1.93885       -1.19349
H          2.05908        1.57273        1.43932
H          3.10567        0.57404        2.48435
H         -0.97370       -3.51416        0.33754
H          0.92035       -1.70858       -2.59293
H         -1.34054       -2.67532       -2.25568
H          4.30799        1.79289       -0.02439
H          4.99016        0.21962       -0.58050
H          5.05319        0.66444        1.15636
H         -0.05911        3.26987       -1.92719
H         -2.41488        3.49542       -1.11564
H         -3.15569       -2.17870        0.61208
H         -3.94145        1.01930        0.94993
