23
N-DECYL-N,N-DIMETHYLDECANAMINIUM+1.gamout
N         16.53540       -2.54650        0.00000
C         18.08980       -1.65350        0.00000
C         14.98110       -3.43940        0.00000
C         19.64410       -2.54650        0.00000
C         13.42680       -2.54650        0.00000
C         15.64250       -0.99210        0.00000
C         17.42840       -4.10080        0.00000
C         21.19840       -1.65350        0.00000
C         11.87250       -3.43940        0.00000
C         22.75280       -2.54650        0.00000
C         10.31810       -2.54650        0.00000
C         24.30710       -1.65350        0.00000
C          8.76380       -3.43940        0.00000
C         25.86140       -2.54650        0.00000
C          7.20950       -2.54650        0.00000
C         27.44880       -1.65350        0.00000
C          5.62210       -3.43940        0.00000
C         29.00320       -2.54650        0.00000
C          4.06770       -2.54650        0.00000
C         30.55750       -1.65350        0.00000
C          2.51340       -3.43940        0.00000
C         32.11180       -2.54650        0.00000
C          0.95910       -2.54650        0.00000
