110
N-HEXATRIACONTANE.gamout
C         23.53876        1.08674        2.65696
C         22.22736        1.83616        3.39311
C         20.90370        1.10527        2.65837
C         24.90863        1.82400        3.32916
C         19.54389        1.86655        3.33298
C         26.17405        1.08363        2.52485
C         18.26452        1.14378        2.52615
C         27.59221        1.82819        3.13831
C         16.85328        1.92055        3.14386
C         28.81493        1.08699        2.26970
C         15.61416        1.19769        2.27150
C         30.27947        1.83264        2.83470
C         14.15449        1.98512        2.84590
C         31.46353        1.08572        1.90803
C         12.94916        1.26020        1.91626
C         32.97076        1.83145        2.43210
C         11.44665        2.06103        2.45786
C         34.12177        1.08207        1.44994
C         10.26873        1.33872        1.47527
C         35.66598        1.83086        1.94229
C          8.72944        2.15680        1.99325
C         36.79224        1.07818        0.91830
C          7.57122        1.43555        0.97070
C         38.36302        1.82637        1.39272
C          6.00532        2.26542        1.47661
C         39.47242        1.06925        0.34157
C          4.85928        1.54494        0.42835
C         41.06075        1.81590        0.80410
C          3.27820        2.38030        0.92952
C         42.15880        1.05633       -0.26546
C          2.13809        1.65963       -0.12820
C         43.75658        1.80250        0.18999
C          0.55077        2.48999        0.36642
C         44.85134        1.04510       -0.88368
C         -0.57928        1.77045       -0.69738
C         46.43767        1.78595       -0.42458
H         23.51822        1.32430        1.21092
H         23.51542       -0.34140        2.94354
H         22.22990        3.26728        3.11257
H         22.23407        1.58922        4.84552
H         20.92618       -0.32578        2.94635
H         20.90550        1.34154        1.20933
H         24.95719        3.25393        3.05065
H         24.94093        1.57431        4.78175
H         19.50015        3.30170        3.05364
H         19.52455        1.61809        4.79223
H         26.13085        1.32413        1.07471
H         26.10497       -0.34625        2.80793
H         18.28992        1.38098        1.06731
H         18.33249       -0.29444        2.81195
H         27.64691        1.57961        4.59657
H         27.68916        3.26034        2.86059
H         16.76101        3.36294        2.86470
H         16.81300        1.67542        4.61401
H         28.75256        1.32644        0.81118
H         28.69765       -0.34659        2.55064
H         15.65855        1.43173        0.79894
H         15.72947       -0.24867        2.55593
H         30.35209        1.58787        4.30111
H         30.42532        3.26867        2.55916
H         14.01652        3.43588        2.56711
H         14.09553        1.74522        4.33064
H         31.30167       -0.35210        2.18628
H         31.38491        1.32480        0.44052
H         13.00801        1.49208        0.42822
H         13.10474       -0.19475        2.19979
H         33.05969        1.58534        3.90827
H         33.15745        3.27100        2.16082
H         11.37285        1.82150        3.95858
H         11.27283        3.51971        2.18169
H         33.92140       -0.36072        1.72155
H         34.02949        1.32444       -0.02856
H         10.45763       -0.12549        1.75399
H         10.34032        1.57163       -0.02990
H         35.88609        3.27531        1.67549
H         35.76697        1.58401        3.42813
H          8.64463        1.91842        3.50965
H          8.52698        3.62461        1.71976
H         36.69129        1.32285       -0.57015
H         36.56059       -0.36919        1.18429
H          7.78643       -0.03701        1.24544
H          7.65160        1.66976       -0.54978
H         38.46954        1.57982        2.88577
H         38.60957        3.27479        1.12926
H          5.78107        3.74069        1.20570
H          5.91569        2.02738        3.00499
H         39.36561        1.31389       -1.15359
H         39.21875       -0.38110        0.60467
H          4.94532        1.78057       -1.10283
H          5.09081        0.06708        0.70049
H         41.17183        1.56993        2.30207
H         41.32488        3.26635        0.54306
H          3.18776        2.14300        2.46448
H          3.04216        3.86011        0.65952
H         42.04761        1.30070       -1.76500
H         41.89117       -0.39569       -0.00469
H          2.22528        1.89633       -1.66512
H          2.37659        0.18035        0.14497
H         43.86931        1.55592        1.68952
H         44.03070        3.25506       -0.07046
H          0.30739        3.96929        0.09458
H          0.45619        2.25369        1.90111
H         44.74391        1.29324       -2.38460
H         44.58214       -0.40493       -0.62580
H         -0.50270        2.06984       -2.21867
H         -1.66471        2.43335       -0.32998
H         -0.47554        0.29901       -0.53976
H         46.67749        1.60145        1.03966
H         47.14022        1.20958       -1.23242
H         46.72247        3.23345       -0.75530
