182
N-HEXACONTANE.gamout
C         16.91310       -0.29320        0.43060
C         15.48760        0.25180        0.29430
C         17.99290        0.77990        0.24110
C         19.42350        0.24280        0.37740
C         20.50350        1.31570        0.18810
C         21.93370        0.77730        0.32490
C         23.01470        1.84950        0.13610
C         24.44430        1.30970        0.27310
C         25.52650        2.38080        0.08460
C         26.95550        1.83920        0.22170
C         28.03910        2.90890        0.03380
C         29.46730        2.36530        0.17060
C         30.55250        3.43340       -0.01660
C         31.97990        2.88730        0.11940
C         33.06690        3.95380       -0.06660
C         34.49330        3.40470        0.06760
C         35.58230        4.46950       -0.11660
C         37.00760        3.91700        0.01470
C         38.09890        4.98000       -0.16660
C         39.52310        4.42340       -0.04020
C         40.61680        5.48470       -0.21670
C         42.03960        4.92300       -0.09800
C         43.13610        5.98280       -0.26620
C         44.55750        5.41500       -0.15940
C         45.65700        6.47370       -0.31330
C         47.07670        5.89860       -0.22440
C         48.17970        6.95710       -0.35270
C         49.59750        6.37410       -0.28950
C         50.70370        7.43370       -0.37310
C         52.12010        6.84420       -0.34450
C         53.22820        7.90490       -0.35780
C         54.64430        7.31430       -0.36990
C         55.75120        8.37450       -0.30650
C         57.16860        7.78900       -0.35630
C         58.27250        8.84790       -0.23970
C         59.69170        8.27020       -0.31860
C         60.79210        9.32900       -0.17110
C         62.21300        8.75900       -0.27090
C         63.31020        9.81860       -0.10600
C         64.73280        9.25530       -0.21990
C         65.82700       10.31630       -0.04520
C         67.25100        9.75840       -0.16850
C         68.34270       10.82110        0.01190
C         69.76780       10.26760       -0.11730
C         70.85720       11.33210        0.06630
C         72.28350       10.78230       -0.06650
C         73.37080       11.84850        0.11920
C         74.79800       11.30180       -0.01580
C         75.88350       12.36970        0.17110
C         77.31160       11.82550        0.03490
C         78.39550       12.89500        0.22280
C         79.82440       12.35310        0.08610
C         80.90670       13.42390        0.27460
C         82.33630       12.88380        0.13770
C         83.41740       13.95580        0.32670
C         84.84750       13.41710        0.19000
C         85.92780       14.48990        0.37930
C         87.35820       13.95250        0.24310
C         88.43830       15.02540        0.43270
C         89.86360       14.48020        0.29630
H         17.03450       -0.75770        1.41970
H         17.06910       -1.09710       -0.30290
H         14.74090       -0.53840        0.43360
H         15.32500        0.69260       -0.69720
H         15.28880        1.03280        1.03860
H         17.87150        1.24470       -0.74880
H         17.83540        1.58510        0.97440
H         19.54360       -0.22230        1.36730
H         19.57980       -0.56260       -0.35590
H         20.38380        1.78070       -0.80180
H         20.34740        2.12110        0.92130
H         22.05320        0.31220        1.31490
H         22.08970       -0.02810       -0.40820
H         22.89550        2.31460       -0.85390
H         22.85900        2.65500        0.86920
H         24.56310        0.84440        1.26300
H         24.59960        0.50420       -0.46010
H         25.40800        2.84630       -0.90520
H         25.37170        3.18620        0.81800
H         27.07350        1.37340        1.21150
H         27.10990        1.03380       -0.51170
H         27.92130        3.37510       -0.95580
H         27.88540        3.71420        0.76760
H         29.58460        1.89860        1.16010
H         29.62060        1.56010       -0.56340
H         30.43520        3.90070       -1.00570
H         30.40030        4.23820        0.71800
H         32.09650        2.41920        1.10830
H         32.13170        2.08270       -0.61560
H         32.95000        4.42280       -1.05500
H         32.91650        4.75770        0.66930
H         34.60950        2.93430        1.05550
H         34.64330        2.60140       -0.66910
H         35.46540        4.94140       -1.10360
H         35.43430        5.27170        0.62160
H         37.12360        3.44290        1.00080
H         37.15530        3.11590       -0.72490
H         37.98150        5.45660       -1.15130
H         37.95410        5.77930        0.57540
H         39.63910        3.94340        0.94300
H         39.66790        3.62620       -0.78460
H         40.49830        5.96870       -1.19760
H         40.47600        6.27900        0.53150
H         42.15600        4.43340        0.88040
H         42.18080        4.13250       -0.85010
H         43.01570        6.47870       -1.24100
H         43.00070        6.76870        0.49170
H         44.67450        4.90980        0.81100
H         44.69440        4.63580       -0.92410
H         45.53390        6.98840       -1.27790
H         45.52820        7.24560        0.46010
H         47.19420        5.36830        0.73250
H         47.20920        5.13870       -1.00900
H         48.05330        7.50170       -1.30030
H         48.05830        7.70550        0.44470
H         49.71400        5.80390        0.64430
H         49.72660        5.64720       -1.10530
H         50.57500        8.02390       -1.29260
H         50.58850        8.14310        0.46020
H         52.23360        6.21570        0.55150
H         52.24920        6.17020       -1.20460
H         53.09990        8.55640       -1.23520
H         53.11410        8.55640        0.52150
H         54.75690        6.62340        0.47910
H         54.77480        6.70380       -1.27580
H         55.62380        9.08500       -1.13690
H         55.63410        8.96330        0.61550
H         57.28640        7.05240        0.45260
H         57.29750        7.23020       -1.29530
H         58.14230        9.59800       -1.03410
H         58.15370        9.39030        0.71020
H         59.81710        7.50540        0.46240
H         59.81720        7.74630       -1.27790
H         60.65730       10.10250       -0.94190
H         60.67370        9.84170        0.79520
H         62.34570        7.97740        0.49200
H         62.33540        8.25740       -1.24240
H         63.17080       10.60580       -0.86200
H         63.19270       10.31290        0.87000
H         64.87150        8.46360        0.53140
H         64.85260        8.76760       -1.19890
H         65.68360       11.11150       -0.79200
H         65.71020       10.79920        0.93650
H         67.39430        8.96070        0.57560
H         67.36930        9.27940       -1.15190
H         68.19600       11.62090       -0.72930
H         68.22620       11.29700        0.99700
H         69.91470        9.46640        0.62230
H         69.88540        9.79410       -1.10350
H         70.70800       12.13460       -0.67140
H         70.74070       11.80370        1.05360
H         72.43310        9.97900        0.67030
H         72.40080       10.31220       -1.05430
H         73.21960       12.65260       -0.61650
H         73.25390       12.31740        1.10760
H         74.94970       10.49730        0.71930
H         74.91560       10.83380       -1.00470
H         75.73070       13.17460       -0.56330
H         75.76610       12.83690        1.16030
H         77.46490       11.02050        0.76910
H         77.42960       11.35900       -0.95450
H         78.24140       13.70030       -0.51090
H         78.27740       13.36110        1.21240
H         79.97880       11.54770        0.81960
H         79.94290       11.88740       -0.90370
H         80.75170       14.22940       -0.45870
H         80.78800       13.88930        1.26440
H         82.49170       12.07830        0.87090
H         82.45540       12.41870       -0.85220
H         83.26170       14.76130       -0.40640
H         83.29800       14.42090        1.31660
H         85.00350       12.61160        0.92310
H         84.96730       12.95220       -0.80000
H         85.77160       15.29530       -0.35380
H         85.80770       14.95480        1.36930
H         87.51560       13.14720        0.97630
H         87.47960       13.48780       -0.74690
H         88.28230       15.82940       -0.30070
H         88.31690       15.48980        1.42180
H         90.61040       15.27020        0.43560
H         90.06230       13.69910        1.04070
H         90.02610       14.03940       -0.69510
