85
OUABAIN.gamout
O          3.85676        1.78137       -0.06567
O         -2.30482        0.92025       -1.93199
O          1.10238       -3.12983       -0.61576
O         -2.50892       -1.77271       -2.06630
O         -0.99292       -0.44192       -3.88591
O         -3.89283       -0.37330       -0.00161
O          8.67912       -1.05023        1.19544
O         -5.37885        0.07620        1.68554
O          9.49057        0.89552        0.34133
O         -6.41552        0.28596       -0.93656
O         -8.55920       -1.53372       -0.48828
O         -8.84468       -1.06630        2.30755
C          0.89781       -0.67604       -0.53444
C          1.77913        0.62100       -0.63701
C          3.08056        0.61027        0.23068
C          3.95699       -0.67851        0.04292
C         -0.42953       -0.58228       -1.42856
C         -1.21345        0.75180       -1.04104
C          1.81638       -1.90056       -0.82362
C          3.03341       -1.91890        0.11950
C          4.89844       -0.70004        1.33372
C          0.96930        1.88680       -0.31243
C          2.87024        0.62936        1.75972
C         -0.29199        1.98176       -1.17517
C         -1.39804       -1.80622       -1.16355
C          4.29996        0.38978        2.28056
C         -1.74081        0.65096        0.42703
C          0.03496       -0.59919       -2.91836
C          4.71943       -0.71364       -1.29375
C         -1.89237       -1.83044        0.30666
C         -2.65823       -0.54864        0.70705
C          6.38234       -0.51607        1.14197
C          7.39031       -1.58470        1.50811
C          7.08280        0.54645        0.65971
C         -5.01501       -0.84284        0.65799
C          8.53810        0.23650        0.67979
C         -6.17068       -0.98230       -0.34614
C         -7.43764       -1.48236        0.39392
C         -6.48677       -0.39714        2.45983
C         -7.74621       -0.53945        1.56003
C         -6.70091        0.58222        3.61184
H          0.59320       -0.76091        0.53063
H          2.12351        0.69840       -1.69707
H          2.17516       -1.83915       -1.87740
H          2.62624       -2.05287        1.14449
H          3.64023       -2.83032       -0.08302
H          4.77205       -1.69625        1.81344
H          1.60432        2.78209       -0.47381
H          0.68806        1.89241        0.76186
H          2.19964       -0.19565        2.07584
H          2.43792        1.57437        2.14180
H         -0.86202        2.89652       -0.89665
H         -0.01090        2.09556       -2.24361
H         -0.84075       -2.74134       -1.36820
H          4.85374        1.33564        2.12053
H          4.38261        0.15363        3.36017
H         -2.28579        1.58429        0.69103
H         -0.88809        0.57085        1.13445
H          0.54607       -1.58443       -3.07351
H          0.79481        0.21177       -3.05858
H          5.32558       -1.63777       -1.38079
H          4.02406       -0.67910       -2.15888
H          5.41402        0.14219       -1.39986
H         -1.02364       -1.95016        0.98897
H         -2.53588       -2.72557        0.46451
H         -2.87333       -0.56772        1.80022
H          3.94793        1.83446       -1.03588
H         -2.77648        1.72608       -1.64969
H          1.52370       -3.81739       -1.16253
H         -2.88512       -2.67004       -2.04150
H          7.34237       -1.82936        2.59479
H          7.22170       -2.51819        0.92201
H         -0.55584       -0.53622       -4.75104
H          6.66860        1.50046        0.30565
H         -4.81296       -1.85839        1.10696
H         -5.86864       -1.72982       -1.12144
H         -7.23738       -2.49548        0.82943
H         -6.25173       -1.40269        2.89932
H         -7.98589        0.45770        1.12742
H         -6.88436        0.11843       -1.77249
H         -7.53101        0.23009        4.25472
H         -5.78620        0.65662        4.23294
H         -6.93950        1.59499        3.22500
H         -8.44367       -2.31809       -1.05441
H         -9.37681       -0.31462        2.61963
