36
PIROXICAM.gamout
S          1.91632       -1.74796       -0.13391
O          1.47593       -1.92815        1.26176
O          2.28630       -2.88911       -0.99466
O          1.22208        2.53518        0.35535
O         -1.22362        2.02064        0.21648
N          0.70834       -0.85515       -0.96193
N         -1.90579       -0.13838       -0.27814
N         -3.89557       -1.27525       -0.30629
C          3.23253       -0.50307       -0.14032
C          2.87045        0.86971       -0.07734
C          0.42774        0.43461       -0.44242
C          1.46302        1.30064       -0.08132
C          4.56957       -0.91979       -0.09948
C          0.30619       -1.29471       -2.30505
C          3.91050        1.82020        0.05599
C         -0.95603        0.84703       -0.15670
C          5.58429        0.04599        0.01717
C          5.25042        1.41188        0.10460
C         -3.30077       -0.08049       -0.12368
C         -4.00947        1.10833        0.17805
C         -5.40392        1.01632        0.27744
C         -5.23140       -1.33743       -0.20095
C         -6.03978       -0.22393        0.08520
H          4.80838       -1.99224       -0.17097
H         -0.21669       -0.45581       -2.80454
H          1.18464       -1.58173       -2.92017
H         -0.38195       -2.16699       -2.27601
H          3.64079        2.88435        0.12527
H          6.63904       -0.26954        0.04728
H          6.04636        2.16573        0.21140
H         -1.55294       -1.08907       -0.43780
H          0.19413        2.60510        0.36332
H         -3.46282        2.04771        0.32965
H         -5.99532        1.91686        0.50887
H         -5.68383       -2.33458       -0.35419
H         -7.13315       -0.32747        0.15895
