43
SCOPOLAMINE.gamout
O          5.37633        0.05263        1.03183
O          0.24403       -0.36214       -0.81787
O         -0.40707       -1.96864        0.67030
O         -4.13850       -2.30645       -1.28779
N          3.82805        1.46310       -0.61269
C          4.44992       -0.68617        0.21950
C          3.97790        0.12693        1.35991
C          3.98538        0.06401       -1.04734
C          3.24711        1.33517        0.73548
C          2.58107       -0.44787       -1.45017
C          1.75262        0.97263        0.55633
C          1.59367       -0.32547       -0.26973
C          4.97562        2.35299       -0.76918
C         -0.65197       -1.21487       -0.25678
C         -2.01750       -1.08781       -0.93570
C         -2.86465       -2.35981       -0.67659
C         -2.71718        0.19403       -0.49022
C         -2.96170        0.43838        0.87912
C         -3.14641        1.14813       -1.43431
C         -3.61801        1.61017        1.29058
C         -3.80672        2.31967       -1.02538
C         -4.04350        2.55503        0.33957
H          4.53123       -1.78922        0.25037
H          3.67113       -0.30633        2.33040
H          4.69377       -0.00367       -1.89887
H          3.36412        2.27913        1.30699
H          2.21372        0.17066       -2.29428
H          2.61636       -1.50532       -1.79192
H          1.24168        0.84576        1.53504
H          1.25328        1.80389        0.01782
H          1.68806       -1.20273        0.40133
H          4.67680        3.37999       -0.46892
H          5.24855        2.40243       -1.84494
H          5.88177        2.06579       -0.18732
H         -1.82395       -1.00954       -2.02896
H         -3.03630       -2.46702        0.41357
H         -2.27302       -3.25366       -0.99487
H         -2.63091       -0.29621        1.63174
H         -2.95929        0.97189       -2.50663
H         -4.00449       -2.21710       -2.25028
H         -3.80000        1.78598        2.36300
H         -4.13682        3.05307       -1.77854
H         -4.55962        3.47330        0.66224
