57
SUFENTANIL.gamout
S         -6.75382       -1.12756       -0.89574
O          2.05689       -1.30810        2.30762
O          2.62691       -2.44533       -1.21916
N         -1.85993        0.14573        0.08057
N          2.42318       -0.31868       -0.35458
C          1.04933       -0.60311        0.21852
C          0.44563        0.68081        0.84619
C          0.08765       -1.01044       -0.93504
C         -1.03014        0.51219        1.23258
C         -1.37733       -1.11368       -0.50114
C          1.17366       -1.72409        1.27418
C         -3.27887        0.09982        0.43366
C          3.02202        0.97740       -0.18132
C          3.10883       -1.32268       -1.03729
C         -4.21642        0.13242       -0.79278
C          4.53755       -1.00460       -1.51194
C          3.09507        1.88261       -1.26191
C          3.54150        1.35645        1.07631
C         -5.67331        0.17457       -0.41056
C          2.22744       -2.29054        3.30617
C          5.21347       -2.21472       -2.15263
C          3.68393        3.14630       -1.08942
C          4.12289        2.62362        1.24526
C         -6.37533        1.12592        0.31048
C          4.19751        3.52021        0.16466
C         -7.76444        0.81585        0.47458
C         -8.12316       -0.37480       -0.12474
H          1.02103        0.99937        1.73735
H          0.51302        1.49863        0.09868
H          0.16637       -0.21567       -1.70830
H          0.42966       -1.95690       -1.39513
H         -1.13457       -0.23349        2.06790
H         -1.39969        1.47923        1.63752
H         -1.99169       -1.36658       -1.39022
H         -1.51862       -1.96273        0.22283
H          1.54214       -2.65211        0.78258
H          0.16740       -1.94207        1.70664
H         -3.52895       -0.79723        1.06485
H         -3.49373        0.98896        1.06558
H         -3.94845        1.02062       -1.40723
H         -4.03556       -0.75436       -1.43482
H          4.50545       -0.14627       -2.21581
H          5.11684       -0.63124       -0.63843
H          2.67199        1.59092       -2.23504
H          3.47706        0.62420        1.89478
H          2.92596       -1.88816        4.06637
H          2.64992       -3.23942        2.89279
H          1.26187       -2.55061        3.80795
H          4.64399       -2.57307       -3.03371
H          5.27300       -3.06287       -1.44126
H          6.24195       -1.96063       -2.48111
H          3.73257        3.84503       -1.93838
H          4.52644        2.91070        2.22842
H         -5.90363        2.03469        0.71214
H          4.65499        4.51201        0.29919
H         -8.47623        1.45468        1.01639
H         -9.10284       -0.86570       -0.16857
