17
TETRABUTYLAMMONIUM+1.gamout
N          4.52670       -4.52670        0.00000
C          4.09220       -3.26830        0.00000
C          4.96130       -2.26340        0.00000
C          4.96130       -5.78520        0.00000
C          4.09220       -6.79010        0.00000
C          3.26830       -4.96130        0.00000
C          2.26340       -4.09220        0.00000
C          5.78520       -4.09220        0.00000
C          6.79010       -4.96130        0.00000
C          4.52670       -1.00490        0.00000
C          5.39590        0.00000        0.00000
C          4.52670       -8.04860        0.00000
C          3.65760       -9.05350        0.00000
C          1.00490       -4.52670        0.00000
C          0.00000       -3.65760        0.00000
C          8.04860       -4.52670        0.00000
C          9.05350       -5.39590        0.00000
