167
TRIOLEIN.gamout
C         -1.30022        2.88761        1.06121
C         -0.15089        1.93316        0.70451
O         -0.83251        4.05927        1.74707
C         -0.68328        0.69928       -0.01878
O          0.92215        2.61101        0.00190
O          0.40748       -0.21510       -0.21512
C         -0.52553        3.89694        3.06811
C          0.67121        3.15497       -1.22084
C          0.10988       -1.33160       -0.94219
O         -0.69771        2.85097        3.66691
C          0.02305        5.18336        3.65515
C         -0.86372        6.42374        3.41843
O         -0.40372        3.08199       -1.79234
C          1.90388        3.85186       -1.76882
C          3.11000        2.92303       -2.03223
O         -0.99176       -1.54498       -1.41016
C          1.31796       -2.24449       -1.05673
C          1.35650       -3.32262        0.05628
C          2.64758       -4.16338        0.04648
C          2.68479       -5.28271        1.10842
C          3.99766       -6.09233        1.12907
C          4.04650       -7.21030        2.18742
C          5.36839       -8.01417        2.17693
C          5.44004       -9.08473        3.23810
C          5.23599      -10.40724        3.05918
C          4.34257        3.68129       -2.56112
C          5.57150        2.79419       -2.84390
C          6.78980        3.56765       -3.38741
C          8.02951        2.70236       -3.67852
C          9.21375        3.49966       -4.27432
C         10.43137        2.65738       -4.56889
C         10.78690        2.15862       -5.77321
C         -2.34035       14.62588        5.45703
C         -1.66201       14.02450        4.45487
C         -0.73680       12.84093        4.58823
C         -1.38201       11.52236        4.10244
C         -0.48420       10.28371        4.26376
C         -1.12204        8.97252        3.76476
C         -0.23880        7.72436        3.95408
C         -2.30674       14.23540        6.91483
C         -1.33489       15.08414        7.76849
C         -1.29614       14.67313        9.25153
C         -0.34992       15.51604       10.12993
C         -0.33663       15.11125       11.61728
C          0.59754       15.95636       12.50254
C          0.60955       15.54015       13.98329
C          1.52927       16.39946       14.86041
C          4.89339      -11.09142        1.75829
C          6.11863      -11.70211        1.03446
C          5.77609      -12.36550       -0.31173
C          6.98697      -12.95169       -1.06684
C          6.64134      -13.58300       -2.43004
C          7.84811      -14.16574       -3.18981
C          7.49649      -14.78380       -4.55381
C          8.70604      -15.36090       -5.30159
C         10.04006        2.33974       -7.07395
C         10.58513        3.49728       -7.94655
C          9.81483        3.70758       -9.26370
C         10.33230        4.87388      -10.13158
C          9.54991        5.09394      -11.44255
C         10.07274        6.25319      -12.31196
C          9.28276        6.47726      -13.61321
C          9.82086        7.62913      -14.47194
H         -2.01737        2.34063        1.70785
H         -1.80419        3.25524        0.14963
H          0.33095        1.60238        1.64542
H         -1.15072        0.96062       -0.98899
H         -1.46244        0.22079        0.61418
H          1.01980        5.35375        3.18770
H          0.19117        4.99399        4.73375
H         -1.85603        6.25984        3.89627
H         -1.05931        6.51464        2.32830
H          2.20254        4.63731       -1.03935
H          1.57813        4.35808       -2.69908
H          2.81379        2.13648       -2.76259
H          3.36147        2.38954       -1.08989
H          2.23863       -1.62626       -1.02806
H          1.25612       -2.73989       -2.04754
H          0.47204       -3.98581       -0.07067
H          1.23735       -2.83146        1.04803
H          3.52294       -3.48803        0.18877
H          2.78194       -4.61377       -0.96480
H          1.82537       -5.97185        0.93877
H          2.51656       -4.84055        2.11823
H          4.85155       -5.39522        1.29751
H          4.17476       -6.53702        0.12167
H          3.89483       -6.77528        3.20213
H          3.19772       -7.91513        2.03722
H          6.21572       -7.30556        2.32515
H          5.51557       -8.45400        1.16608
H          5.68198       -8.73996        4.26067
H          5.34118      -11.06364        3.94286
H          4.06001        4.22774       -3.49112
H          4.62548        4.47180       -1.82704
H          5.29172        1.99128       -3.56528
H          5.86103        2.26161       -1.90801
H          7.06890        4.36471       -2.65862
H          6.49480        4.10768       -4.31757
H          7.76933        1.87766       -4.38063
H          8.36253        2.19816       -2.74196
H          9.49741        4.30397       -3.55660
H          8.86945        4.02076       -5.19401
H         11.08396        2.42606       -3.70695
H         11.71735        1.56424       -5.82362
H         -2.98280       15.48691        5.19594
H         -1.80116       14.41699        3.43058
H         -0.40503       12.71336        5.64126
H          0.18975       13.03274        3.99845
H         -1.67601       11.63274        3.03319
H         -2.33600       11.37790        4.65834
H         -0.20419       10.17033        5.33731
H          0.47642       10.45487        3.72392
H         -1.37729        9.07539        2.68430
H         -2.09604        8.81916        4.28504
H          0.00026        7.60000        5.03600
H          0.74190        7.88859        3.44925
H         -2.04009       13.16114        7.02115
H         -3.33228       14.33775        7.33799
H         -1.61879       16.15839        7.68275
H         -0.31612       15.01110        7.32466
H         -1.00462       13.59897        9.32242
H         -2.32820       14.72794        9.67065
H         -0.63402       16.59126       10.04532
H          0.68668       15.45187        9.72388
H         -0.04757       14.03714       11.70144
H         -1.37444       15.17018       12.02138
H          0.30525       17.03034       12.42814
H          1.63664       15.90408       12.10064
H          0.91268       14.47059       14.06122
H         -0.43009       15.58249       14.38217
H          2.56935       16.41301       14.46847
H          1.57194       16.01622       15.90033
H          1.18164       17.45405       14.90713
H          4.38694      -10.38275        1.06643
H          4.15489      -11.90034        1.95939
H          6.60856      -12.44613        1.70413
H          6.87399      -10.89740        0.88532
H          5.26215      -11.62146       -0.96468
H          5.02728      -13.17348       -0.13866
H          7.48353      -13.71671       -0.42487
H          7.75011      -12.15211       -1.21411
H          6.14096      -12.81973       -3.07140
H          5.88163      -14.38543       -2.27984
H          8.34650      -14.93734       -2.55683
H          8.61234      -13.36669       -3.33615
H          7.00035      -14.01334       -5.18814
H          6.73278      -15.58208       -4.40819
H          9.47049      -14.57928       -5.50103
H          8.40946      -15.79423       -6.27827
H          9.20087      -16.16492       -4.71529
H          8.95816        2.51218       -6.88427
H         10.09849        1.39163       -7.65664
H         11.66050        3.30954       -8.17151
H         10.56889        4.42940       -7.33683
H          8.73504        3.87001       -9.03589
H          9.85194        2.76504       -9.85921
H         11.40686        4.69952      -10.37489
H         10.31581        5.81321       -9.53054
H          8.47463        5.27212      -11.20499
H          9.56741        4.15239      -12.04035
H         11.14414        6.07137      -12.56421
H         10.06616        7.19471      -11.71373
H          8.21257        6.66660      -13.36614
H          9.28543        5.53607      -14.21002
H          9.79654        8.59422      -13.92110
H          9.22268        7.75932      -15.39668
H         10.87417        7.45113      -14.77916
