100
VIOLAXANTHIN.gamout
O         11.46160        1.13860       -0.86662
O        -11.43480       -0.97112        0.91038
O         15.09849       -0.52320        0.40993
O        -15.66330       -1.46561        0.74909
C         11.69537       -0.16174       -0.28103
C        -11.68331       -0.10284       -0.21891
C         12.28162        1.09401        0.32663
C        -12.30812        0.15981        1.13399
C         12.56463       -1.09791       -1.16863
C        -12.51822       -0.75598       -1.37203
C         13.73460        1.49195        0.07522
C        -13.75531       -0.22343        1.39896
C         13.85376       -0.37260       -1.63249
C        -14.00572       -0.92713       -0.97147
C         14.61143        0.40776       -0.56463
C        -14.26571       -1.32757        0.48188
C         11.67846        1.74637        1.55768
C        -11.78280        1.24277        2.06123
C         10.49507       -0.79326        0.35308
C        -10.49063        0.69501       -0.64550
C         11.75233       -1.44449       -2.43597
C         12.91710       -2.40715       -0.43148
C        -12.48734        0.10648       -2.64931
C        -11.88549       -2.12655       -1.69591
C          9.22472       -0.30254        0.24319
C         -9.21535        0.45356       -0.22014
C          8.02267       -0.87005        0.83314
C         -8.02401        1.19085       -0.61008
C          8.15721       -2.11051        1.67645
C         -8.18503        2.37556       -1.52780
C          6.80134       -0.25820        0.58261
C         -6.78854        0.77114       -0.13489
C          5.49949       -0.67083        1.02246
C         -5.49530        1.32846       -0.41287
C          4.32138       -0.02557        0.68313
C         -4.30839        0.80756        0.07687
C          2.98398       -0.41862        1.05078
C         -2.97669        1.29244       -0.18566
C          2.80108       -1.63484        1.92421
C         -2.80999        2.51088       -1.05968
C          1.90816        0.33031        0.56887
C         -1.89198        0.60488        0.36283
C          0.51272        0.09724        0.75918
C         -0.49869        0.87373        0.20455
H         13.71886        2.39713       -0.57237
H         14.20303        1.80398        1.03349
H        -13.85047       -0.54497        2.45811
H        -14.41943        0.66160        1.27931
H         13.59701        0.33747       -2.44641
H         14.54127       -1.12244       -2.07225
H        -14.47285       -1.67082       -1.65417
H        -14.55316        0.02617       -1.14366
H         15.47772        0.90897       -1.06086
H        -13.72503       -2.27354        0.72399
H         12.25562        1.46477        2.46315
H         11.72648        2.85247        1.46023
H         10.62321        1.45447        1.70465
H        -10.72151        1.47414        1.85710
H        -12.37731        2.17403        1.94872
H        -11.87638        0.91382        3.11763
H         10.68200       -1.71855        0.92176
H        -10.68642        1.51578       -1.35398
H         11.42801       -0.52202       -2.95696
H         12.37030       -2.04209       -3.13714
H         10.85166       -2.04051       -2.18699
H         12.01694       -3.01718       -0.21782
H         13.58708       -3.02436       -1.06547
H         13.45447       -2.20211        0.51318
H        -12.87169        1.13217       -2.46732
H        -13.13442       -0.35197       -3.42689
H        -11.46625        0.18768       -3.07104
H        -11.90158       -2.79326       -0.81296
H        -12.43920       -2.61321       -2.52373
H        -10.82965       -2.00917       -2.01255
H         15.58174       -0.00787        1.08223
H        -15.99274       -2.19102        0.18700
H          9.09241        0.61782       -0.35363
H         -9.07479       -0.37956        0.49045
H          8.83111       -1.93328        2.54297
H          8.60342       -2.94860        1.09767
H          7.18765       -2.46040        2.07358
H         -8.82299        3.15881       -1.06219
H         -8.68506        2.08324       -2.47706
H         -7.21990        2.84511       -1.79140
H          6.82874        0.64838       -0.04896
H         -6.79533       -0.11068        0.53171
H          5.43302       -1.57267        1.65501
H         -5.44537        2.21690       -1.06536
H          4.39747        0.87588        0.04782
H         -4.37367       -0.08435        0.72739
H          3.19955       -2.54832        1.43093
H          3.35087       -1.52442        2.88342
H          1.74071       -1.82545        2.16855
H         -3.34550        3.38657       -0.63300
H         -3.23535        2.33961       -2.07261
H         -1.75118        2.79849       -1.18807
H          2.17072        1.20327       -0.05635
H         -2.14401       -0.27346        0.98495
H          0.20653       -0.76940        1.37359
H         -0.19598        1.74251       -0.40812
