
 OpenBabel10302115413D

 20 20  0  0  0  0  0  0  0  0999 V2000
   -0.1021   28.7803    0.0043 C   0  0  2  0  0  0  0  0  0  0  0  0
    0.8674   29.9812   -0.1179 C   0  0  0  0  0  0  0  0  0  0  0  0
    0.7219   27.4872    0.1445 C   0  0  1  0  0  0  0  0  0  0  0  0
   -0.9890   28.6924   -1.0900 O   0  0  0  0  0  0  0  0  0  0  0  0
    1.7316   29.8245   -1.2330 O   0  0  0  0  0  0  0  0  0  0  0  0
    2.5759   28.6952   -1.0489 C   0  0  1  0  0  0  0  0  0  0  0  0
    1.7441   27.3943   -1.0110 C   0  0  2  0  0  0  0  0  0  0  0  0
    3.4832   28.6206   -2.1148 O   0  0  0  0  0  0  0  0  0  0  0  0
    1.0899   27.2251   -2.2426 O   0  0  0  0  0  0  0  0  0  0  0  0
    1.4019   27.5168    1.3749 O   0  0  0  0  0  0  0  0  0  0  0  0
   -0.7285   28.9212    0.9118 H   0  0  0  0  0  0  0  0  0  0  0  0
    0.2754   30.9113   -0.2502 H   0  0  0  0  0  0  0  0  0  0  0  0
    1.4594   30.1190    0.8156 H   0  0  0  0  0  0  0  0  0  0  0  0
    0.0291   26.6134    0.1419 H   0  0  0  0  0  0  0  0  0  0  0  0
   -0.5773   29.1037   -1.8930 H   0  0  0  0  0  0  0  0  0  0  0  0
    3.1612   28.7891   -0.1019 H   0  0  0  0  0  0  0  0  0  0  0  0
    2.4323   26.5323   -0.8467 H   0  0  0  0  0  0  0  0  0  0  0  0
    4.0733   29.4152   -2.0383 H   0  0  0  0  0  0  0  0  0  0  0  0
    0.7658   26.2869   -2.2680 H   0  0  0  0  0  0  0  0  0  0  0  0
    1.7031   26.5889    1.5601 H   0  0  0  0  0  0  0  0  0  0  0  0
  1  2  1  0  0  0  0
  1  3  1  1  0  0  0
  1  4  1  0  0  0  0
  1 11  1  0  0  0  0
  2  5  1  0  0  0  0
  2 12  1  0  0  0  0
  2 13  1  0  0  0  0
  3  7  1  6  0  0  0
  3 10  1  0  0  0  0
  3 14  1  0  0  0  0
  4 15  1  0  0  0  0
  5  6  1  0  0  0  0
  6  7  1  1  0  0  0
  6  8  1  0  0  0  0
  6 16  1  0  0  0  0
  7  9  1  0  0  0  0
  7 17  1  1  0  0  0
  8 18  1  0  0  0  0
  9 19  1  0  0  0  0
 10 20  1  0  0  0  0
M  END
