
 OpenBabel06142411433D

 32 31  0  0  0  0  0  0  0  0999 V2000
    5.6832   -4.4912   -0.0000 O   0  5  0  0  0  0  0  0  0  0  0  0
    5.9180   -2.2200   -0.0000 O   0  0  0  0  0  0  0  0  0  0  0  0
   -0.3965   -0.2709    0.0000 C   0  0  0  0  0  0  0  0  0  0  0  0
    1.1329   -0.2928    0.0000 C   0  0  0  0  0  0  0  0  0  0  0  0
   -0.9319    1.1619   -0.0000 C   0  0  0  0  0  0  0  0  0  0  0  0
    1.6690   -1.7254    0.0000 C   0  0  0  0  0  0  0  0  0  0  0  0
   -2.4618    1.1847    0.0000 C   0  0  0  0  0  0  0  0  0  0  0  0
    3.1985   -1.7468   -0.0000 C   0  0  0  0  0  0  0  0  0  0  0  0
   -2.9961    2.6200   -0.0000 C   0  0  0  0  0  0  0  0  0  0  0  0
    3.7356   -3.1744    0.0000 C   0  0  0  0  0  0  0  0  0  0  0  0
   -4.4987    2.6622   -0.0000 C   0  0  0  0  0  0  0  0  0  0  0  0
    5.2628   -3.2978   -0.0000 C   0  0  0  0  0  0  0  0  0  0  0  0
   -5.1960    3.8056    0.0000 C   0  0  0  0  0  0  0  0  0  0  0  0
   -0.7715   -0.8032    0.8825 H   0  0  0  0  0  0  0  0  0  0  0  0
   -0.7715   -0.8032   -0.8825 H   0  0  0  0  0  0  0  0  0  0  0  0
    1.5079    0.2397   -0.8825 H   0  0  0  0  0  0  0  0  0  0  0  0
    1.5079    0.2397    0.8825 H   0  0  0  0  0  0  0  0  0  0  0  0
   -0.5567    1.6942   -0.8826 H   0  0  0  0  0  0  0  0  0  0  0  0
   -0.5567    1.6942    0.8826 H   0  0  0  0  0  0  0  0  0  0  0  0
    1.2940   -2.2578   -0.8826 H   0  0  0  0  0  0  0  0  0  0  0  0
    1.2940   -2.2578    0.8826 H   0  0  0  0  0  0  0  0  0  0  0  0
   -2.8360    0.6499   -0.8823 H   0  0  0  0  0  0  0  0  0  0  0  0
   -2.8360    0.6499    0.8823 H   0  0  0  0  0  0  0  0  0  0  0  0
    3.5729   -1.2113   -0.8812 H   0  0  0  0  0  0  0  0  0  0  0  0
    3.5729   -1.2113    0.8812 H   0  0  0  0  0  0  0  0  0  0  0  0
   -2.6204    3.1448   -0.8868 H   0  0  0  0  0  0  0  0  0  0  0  0
   -2.6204    3.1448    0.8868 H   0  0  0  0  0  0  0  0  0  0  0  0
    3.3606   -3.7058   -0.8836 H   0  0  0  0  0  0  0  0  0  0  0  0
    3.3606   -3.7058    0.8836 H   0  0  0  0  0  0  0  0  0  0  0  0
   -5.0390    1.7178   -0.0000 H   0  0  0  0  0  0  0  0  0  0  0  0
   -4.7003    4.7714    0.0000 H   0  0  0  0  0  0  0  0  0  0  0  0
   -6.2813    3.7950    0.0000 H   0  0  0  0  0  0  0  0  0  0  0  0
  1 12  1  0  0  0  0
  2 12  2  0  0  0  0
  3  4  1  0  0  0  0
  3  5  1  0  0  0  0
  3 14  1  0  0  0  0
  3 15  1  0  0  0  0
  4  6  1  0  0  0  0
  4 16  1  0  0  0  0
  4 17  1  0  0  0  0
  5  7  1  0  0  0  0
  5 18  1  0  0  0  0
  5 19  1  0  0  0  0
  6  8  1  0  0  0  0
  6 20  1  0  0  0  0
  6 21  1  0  0  0  0
  7  9  1  0  0  0  0
  7 22  1  0  0  0  0
  7 23  1  0  0  0  0
  8 10  1  0  0  0  0
  8 24  1  0  0  0  0
  8 25  1  0  0  0  0
  9 11  1  0  0  0  0
  9 26  1  0  0  0  0
  9 27  1  0  0  0  0
 10 12  1  0  0  0  0
 10 28  1  0  0  0  0
 10 29  1  0  0  0  0
 11 13  2  0  0  0  0
 11 30  1  0  0  0  0
 13 31  1  0  0  0  0
 13 32  1  0  0  0  0
M  CHG  1   1  -1
M  END
