
 OpenBabel01292413303D

 19 19  0  0  0  0  0  0  0  0999 V2000
   -2.6045    1.9159   -0.3538 O   0  0  0  0  0  0  0  0  0  0  0  0
   -3.5343   -0.4546    0.5738 O   0  0  0  0  0  0  0  0  0  0  0  0
    3.3488    0.6467    0.8354 O   0  0  0  0  0  0  0  0  0  0  0  0
    3.2178   -1.5414    0.1880 O   0  0  0  0  0  0  0  0  0  0  0  0
    0.4663   -0.0729   -0.5232 C   0  0  0  0  0  0  0  0  0  0  0  0
    1.9079    0.0670   -0.9542 C   0  0  0  0  0  0  0  0  0  0  0  0
   -0.4159    1.0139   -0.6231 C   0  0  0  0  0  0  0  0  0  0  0  0
   -0.0228   -1.3074   -0.0607 C   0  0  0  0  0  0  0  0  0  0  0  0
   -1.7453    0.8564   -0.2540 C   0  0  0  0  0  0  0  0  0  0  0  0
   -1.3595   -1.4574    0.3166 C   0  0  0  0  0  0  0  0  0  0  0  0
   -2.2145   -0.3678    0.2169 C   0  0  0  0  0  0  0  0  0  0  0  0
    2.9088   -0.3134    0.1396 C   0  0  0  0  0  0  0  0  0  0  0  0
    2.1131    1.0975   -1.2707 H   0  0  0  0  0  0  0  0  0  0  0  0
    2.0738   -0.5617   -1.8381 H   0  0  0  0  0  0  0  0  0  0  0  0
   -0.0645    1.9777   -0.9785 H   0  0  0  0  0  0  0  0  0  0  0  0
    0.6579   -2.1558    0.0178 H   0  0  0  0  0  0  0  0  0  0  0  0
   -1.6964   -2.4210    0.6808 H   0  0  0  0  0  0  0  0  0  0  0  0
   -3.4484    1.5603   -0.0149 H   0  0  0  0  0  0  0  0  0  0  0  0
   -3.6690   -1.3475    0.9342 H   0  0  0  0  0  0  0  0  0  0  0  0
  1  9  1  0  0  0  0
  1 18  1  0  0  0  0
  2 11  1  0  0  0  0
  2 19  1  0  0  0  0
  3 12  1  0  0  0  0
  4 12  2  0  0  0  0
  5  6  1  0  0  0  0
  5  7  2  0  0  0  0
  5  8  1  0  0  0  0
  6 12  1  0  0  0  0
  6 13  1  0  0  0  0
  6 14  1  0  0  0  0
  7  9  1  0  0  0  0
  7 15  1  0  0  0  0
  8 10  2  0  0  0  0
  8 16  1  0  0  0  0
  9 11  2  0  0  0  0
 10 11  1  0  0  0  0
 10 17  1  0  0  0  0
M  END
