
 OpenBabel11132315563D

 27 28  0  0  0  0  0  0  0  0999 V2000
    1.0931   -0.3800   -0.2128 N   0  3  0  0  0  0  0  0  0  0  0  0
   -1.0433   -0.5212    0.1004 N   0  0  0  0  0  0  0  0  0  0  0  0
    0.0707   -1.2664   -0.1117 C   0  0  0  0  0  0  0  0  0  0  0  0
    0.6233    0.9123   -0.0563 C   0  0  0  0  0  0  0  0  0  0  0  0
   -0.7209    0.8247    0.1240 C   0  0  0  0  0  0  0  0  0  0  0  0
    2.4769   -0.7017   -0.5610 C   0  0  0  0  0  0  0  0  0  0  0  0
   -2.3782   -1.0388    0.3978 C   0  0  0  0  0  0  0  0  0  0  0  0
    1.3135    1.7372   -0.1095 H   0  0  0  0  0  0  0  0  0  0  0  0
   -1.4976    1.5531    0.2845 H   0  0  0  0  0  0  0  0  0  0  0  0
    2.5005   -1.5084   -1.2976 H   0  0  0  0  0  0  0  0  0  0  0  0
    2.9624    0.1756   -0.9991 H   0  0  0  0  0  0  0  0  0  0  0  0
    3.0153   -0.9899    0.3449 H   0  0  0  0  0  0  0  0  0  0  0  0
   -2.9539   -0.2873    0.9465 H   0  0  0  0  0  0  0  0  0  0  0  0
   -2.8909   -1.2636   -0.5404 H   0  0  0  0  0  0  0  0  0  0  0  0
   -2.3032   -1.9336    1.0204 H   0  0  0  0  0  0  0  0  0  0  0  0
    0.1554   -2.7727   -0.2146 C   0  0  0  0  0  0  0  0  0  0  0  0
    1.1979   -3.4579    0.4178 C   0  0  0  0  0  0  0  0  0  0  0  0
    1.2747   -4.8477    0.3205 C   0  0  0  0  0  0  0  0  0  0  0  0
    0.3175   -5.5446   -0.4080 C   0  0  0  0  0  0  0  0  0  0  0  0
   -0.7233   -4.8755   -1.0421 C   0  0  0  0  0  0  0  0  0  0  0  0
   -0.8067   -3.4836   -0.9430 C   0  0  0  0  0  0  0  0  0  0  0  0
    1.9334   -2.9405    1.0267 H   0  0  0  0  0  0  0  0  0  0  0  0
    2.0739   -5.3930    0.8184 H   0  0  0  0  0  0  0  0  0  0  0  0
   -1.6011   -2.9722   -1.4790 H   0  0  0  0  0  0  0  0  0  0  0  0
   -1.4655   -5.4189   -1.6210 H   0  0  0  0  0  0  0  0  0  0  0  0
    0.4424   -6.8980   -0.4736 O   0  0  0  0  0  0  0  0  0  0  0  0
   -0.2776   -7.2714   -1.0096 H   0  0  0  0  0  0  0  0  0  0  0  0
  1  3  2  0  0  0  0
  1  4  1  0  0  0  0
  1  6  1  0  0  0  0
  2  3  1  0  0  0  0
  2  5  1  0  0  0  0
  2  7  1  0  0  0  0
  3 16  1  0  0  0  0
  4  5  2  0  0  0  0
  4  8  1  0  0  0  0
  5  9  1  0  0  0  0
  6 10  1  0  0  0  0
  6 11  1  0  0  0  0
  6 12  1  0  0  0  0
  7 13  1  0  0  0  0
  7 14  1  0  0  0  0
  7 15  1  0  0  0  0
 16 17  2  0  0  0  0
 17 18  1  0  0  0  0
 17 22  1  0  0  0  0
 18 19  2  0  0  0  0
 18 23  1  0  0  0  0
 19 20  1  0  0  0  0
 19 26  1  0  0  0  0
 20 25  1  0  0  0  0
 21 20  2  0  0  0  0
 21 16  1  0  0  0  0
 21 24  1  0  0  0  0
 27 26  1  0  0  0  0
M  CHG  1   1   1
M  END
