
 OpenBabel01292413323D

 19 18  0  0  0  0  0  0  0  0999 V2000
    4.1778   -0.8537   -0.0040 O   0  0  0  0  0  0  0  0  0  0  0  0
   -4.1836    0.8280   -0.0190 O   0  0  0  0  0  0  0  0  0  0  0  0
    3.4050    1.2314    0.0335 O   0  0  0  0  0  0  0  0  0  0  0  0
   -3.2725   -1.2654   -0.0599 O   0  0  0  0  0  0  0  0  0  0  0  0
    0.6722    0.3625   -0.0007 C   0  0  0  0  0  0  0  0  0  0  0  0
   -0.6789   -0.3526   -0.0244 C   0  0  0  0  0  0  0  0  0  0  0  0
    1.8216   -0.6420   -0.0157 C   0  0  0  0  0  0  0  0  0  0  0  0
   -1.8397    0.6360   -0.0096 C   0  0  0  0  0  0  0  0  0  0  0  0
    3.1632    0.0370    0.0074 C   0  0  0  0  0  0  0  0  0  0  0  0
   -3.2317   -0.0048   -0.0319 C   0  0  0  0  0  0  0  0  0  0  0  0
    0.7434    0.9934    0.8941 H   0  0  0  0  0  0  0  0  0  0  0  0
    0.7539    1.0318   -0.8662 H   0  0  0  0  0  0  0  0  0  0  0  0
   -0.7432   -0.9832   -0.9199 H   0  0  0  0  0  0  0  0  0  0  0  0
   -0.7537   -1.0218    0.8418 H   0  0  0  0  0  0  0  0  0  0  0  0
    1.7664   -1.2559   -0.9216 H   0  0  0  0  0  0  0  0  0  0  0  0
    1.7554   -1.2949    0.8617 H   0  0  0  0  0  0  0  0  0  0  0  0
   -1.7761    1.2627    0.8885 H   0  0  0  0  0  0  0  0  0  0  0  0
   -1.7657    1.3014   -0.8787 H   0  0  0  0  0  0  0  0  0  0  0  0
    4.9737   -0.2840    0.0131 H   0  0  0  0  0  0  0  0  0  0  0  0
  1  9  1  0  0  0  0
  1 19  1  0  0  0  0
  2 10  1  0  0  0  0
  3  9  2  0  0  0  0
  4 10  2  0  0  0  0
  5  6  1  0  0  0  0
  5  7  1  0  0  0  0
  5 11  1  0  0  0  0
  5 12  1  0  0  0  0
  6  8  1  0  0  0  0
  6 13  1  0  0  0  0
  6 14  1  0  0  0  0
  7  9  1  0  0  0  0
  7 15  1  0  0  0  0
  7 16  1  0  0  0  0
  8 10  1  0  0  0  0
  8 17  1  0  0  0  0
  8 18  1  0  0  0  0
M  END
