
 OpenBabel07222414563D

 12 11  0  0  1  0  0  0  0  0999 V2000
    1.2655    1.0352   -0.2257 O   0  5  0  0  0  0  0  0  0  0  0  0
    1.2205   -1.1768    0.3732 O   0  0  0  0  0  0  0  0  0  0  0  0
   -1.4332   -1.2678    0.5008 N   0  0  0  0  0  0  0  0  0  0  0  0
   -0.8017    0.0903    0.6051 C   0  0  2  0  0  0  0  0  0  0  0  0
   -1.5699    1.0778   -0.2559 C   0  0  0  0  0  0  0  0  0  0  0  0
    0.7234   -0.0190    0.2069 C   0  0  0  0  0  0  0  0  0  0  0  0
   -0.8450    0.4016    1.6547 H   0  0  0  0  0  0  0  0  0  0  0  0
   -2.6317    1.0938    0.0130 H   0  0  0  0  0  0  0  0  0  0  0  0
   -1.1818    2.0938   -0.1255 H   0  0  0  0  0  0  0  0  0  0  0  0
   -1.4904    0.8282   -1.3200 H   0  0  0  0  0  0  0  0  0  0  0  0
   -0.7099   -1.8750    0.9227 H   0  0  0  0  0  0  0  0  0  0  0  0
   -1.3399   -1.5324   -0.4829 H   0  0  0  0  0  0  0  0  0  0  0  0
  1  6  1  0  0  0  0
  2  6  2  0  0  0  0
  3  4  1  0  0  0  0
  3 11  1  0  0  0  0
  3 12  1  0  0  0  0
  4  5  1  0  0  0  0
  4  6  1  0  0  0  0
  4  7  1  1  0  0  0
  5  8  1  0  0  0  0
  5  9  1  0  0  0  0
  5 10  1  0  0  0  0
M  CHG  1   1  -1
M  END
