
 OpenBabel12192223523D

  5  4  0  0  0  0  0  0  0  0999 V2000
   -1.9913   -1.8321   -1.1314 Al  0  0  0  0  0  0  0  0  0  0  0  0
   -4.0169   -0.9762   -0.9019 Cl  0  0  0  0  0  0  0  0  0  0  0  0
   -0.9721   -0.8657   -2.8389 Cl  0  0  0  0  0  0  0  0  0  0  0  0
   -0.8289   -1.4801    0.7160 Cl  0  0  0  0  0  0  0  0  0  0  0  0
   -2.1474   -4.0062   -1.5009 Cl  0  0  0  0  0  0  0  0  0  0  0  0
  1  2  1  0  0  0  0
  1  3  1  0  0  0  0
  1  4  1  0  0  0  0
  1  5  1  0  0  0  0
M  END
