
 OpenBabel01292413333D

 18 18  0  0  0  0  0  0  0  0999 V2000
    3.0646    0.4338   -0.0001 O   0  0  0  0  0  0  0  0  0  0  0  0
   -3.1156   -1.2754    0.0003 O   0  0  0  0  0  0  0  0  0  0  0  0
   -3.2826    0.9827   -0.0001 O   0  0  0  0  0  0  0  0  0  0  0  0
   -1.1082    0.0070    0.0001 C   0  0  0  0  0  0  0  0  0  0  0  0
    1.7143    0.2036    0.0000 C   0  0  0  0  0  0  0  0  0  0  0  0
   -0.4731    1.2576   -0.0002 C   0  0  0  0  0  0  0  0  0  0  0  0
   -0.3012   -1.1413    0.0004 C   0  0  0  0  0  0  0  0  0  0  0  0
    0.9222    1.3535   -0.0002 C   0  0  0  0  0  0  0  0  0  0  0  0
    1.0961   -1.0470    0.0003 C   0  0  0  0  0  0  0  0  0  0  0  0
   -2.6212   -0.1034    0.0001 C   0  0  0  0  0  0  0  0  0  0  0  0
    3.9015   -0.7144   -0.0002 C   0  0  0  0  0  0  0  0  0  0  0  0
   -1.0810    2.1609   -0.0004 H   0  0  0  0  0  0  0  0  0  0  0  0
   -0.7793   -2.1201    0.0006 H   0  0  0  0  0  0  0  0  0  0  0  0
    1.3876    2.3343   -0.0005 H   0  0  0  0  0  0  0  0  0  0  0  0
    1.6604   -1.9717    0.0006 H   0  0  0  0  0  0  0  0  0  0  0  0
    3.7511   -1.3143   -0.9040 H   0  0  0  0  0  0  0  0  0  0  0  0
    3.7515   -1.3141    0.9037 H   0  0  0  0  0  0  0  0  0  0  0  0
    4.9403   -0.3703   -0.0005 H   0  0  0  0  0  0  0  0  0  0  0  0
  1  5  1  0  0  0  0
  1 11  1  0  0  0  0
  2 10  1  0  0  0  0
  3 10  2  0  0  0  0
  4  6  2  0  0  0  0
  4  7  1  0  0  0  0
  4 10  1  0  0  0  0
  5  8  2  0  0  0  0
  5  9  1  0  0  0  0
  6  8  1  0  0  0  0
  6 12  1  0  0  0  0
  7  9  2  0  0  0  0
  7 13  1  0  0  0  0
  8 14  1  0  0  0  0
  9 15  1  0  0  0  0
 11 16  1  0  0  0  0
 11 17  1  0  0  0  0
 11 18  1  0  0  0  0
M  END
