
 OpenBabel01292413333D

 16 16  0  0  0  0  0  0  0  0999 V2000
    2.3347    1.3295    0.2408 O   0  0  0  0  0  0  0  0  0  0  0  0
    2.3972   -0.8907   -0.1972 O   0  0  0  0  0  0  0  0  0  0  0  0
    0.1767   -2.2938   -0.2638 N   0  0  0  0  0  0  0  0  0  0  0  0
    0.2619    0.1700   -0.0383 C   0  0  0  0  0  0  0  0  0  0  0  0
   -0.4630   -1.0229   -0.2417 C   0  0  0  0  0  0  0  0  0  0  0  0
   -0.4629    1.3691    0.1191 C   0  0  0  0  0  0  0  0  0  0  0  0
   -1.8647   -1.0045   -0.1995 C   0  0  0  0  0  0  0  0  0  0  0  0
   -1.8591    1.3835    0.1114 C   0  0  0  0  0  0  0  0  0  0  0  0
   -2.5613    0.1933   -0.0424 C   0  0  0  0  0  0  0  0  0  0  0  0
    1.7811    0.2091    0.0028 C   0  0  0  0  0  0  0  0  0  0  0  0
    0.0842    2.3011    0.2573 H   0  0  0  0  0  0  0  0  0  0  0  0
   -2.4101   -1.9379   -0.3040 H   0  0  0  0  0  0  0  0  0  0  0  0
   -2.3878    2.3230    0.2370 H   0  0  0  0  0  0  0  0  0  0  0  0
   -3.6461    0.1926   -0.0331 H   0  0  0  0  0  0  0  0  0  0  0  0
    1.1694   -2.0935   -0.5201 H   0  0  0  0  0  0  0  0  0  0  0  0
    0.2548   -2.6187    0.6966 H   0  0  0  0  0  0  0  0  0  0  0  0
  1 10  1  0  0  0  0
  2 10  2  0  0  0  0
  3  5  1  0  0  0  0
  3 15  1  0  0  0  0
  3 16  1  0  0  0  0
  4  5  1  0  0  0  0
  4  6  2  0  0  0  0
  4 10  1  0  0  0  0
  5  7  2  0  0  0  0
  6  8  1  0  0  0  0
  6 11  1  0  0  0  0
  7  9  1  0  0  0  0
  7 12  1  0  0  0  0
  8  9  2  0  0  0  0
  8 13  1  0  0  0  0
  9 14  1  0  0  0  0
M  END
