
 OpenBabel03131815383D

 53 52  0  0  1  0  0  0  0  0999 V2000
   -2.4792    2.4594    0.0318 C   0  0  0  0  0  0  0  0  0  0  0  0
   -0.0834    2.6408   -0.2848 C   0  0  0  0  0  0  0  0  0  0  0  0
   -1.3472    3.3852   -0.1745 N   0  0  0  0  0  0  0  0  0  0  0  0
   -1.2670    4.0438    0.6310 H   0  0  0  0  0  0  0  0  0  0  0  0
   -1.5159    3.8809   -1.0763 H   0  0  0  0  0  0  0  0  0  0  0  0
   -3.8782    3.1438   -0.0811 C   0  0  1  0  0  0  0  0  0  0  0  0
   -2.3847    1.9573    1.0217 H   0  0  0  0  0  0  0  0  0  0  0  0
   -2.4256    1.6714   -0.7554 H   0  0  0  0  0  0  0  0  0  0  0  0
   -4.9297    1.9906   -0.0454 C   0  0  0  0  0  0  0  0  0  0  0  0
   -6.4031    2.3702   -0.2282 C   0  0  0  0  0  0  0  0  0  0  0  0
   -4.8307    1.4194    0.9046 H   0  0  0  0  0  0  0  0  0  0  0  0
   -4.6755    1.3038   -0.8840 H   0  0  0  0  0  0  0  0  0  0  0  0
   -7.2762    1.1175   -0.3863 C   0  0  0  0  0  0  0  0  0  0  0  0
   -6.5132    3.0059   -1.1339 H   0  0  0  0  0  0  0  0  0  0  0  0
   -6.7633    2.8977    0.6726 H   0  0  0  0  0  0  0  0  0  0  0  0
   -8.7470    1.4879   -0.5566 C   0  0  0  0  0  0  0  0  0  0  0  0
   -8.8843    2.1163   -1.4623 H   0  0  0  0  0  0  0  0  0  0  0  0
   -9.1108    2.0452    0.3329 H   0  0  0  0  0  0  0  0  0  0  0  0
   -9.3529    0.5643   -0.6693 H   0  0  0  0  0  0  0  0  0  0  0  0
   -7.1707    0.4711    0.5125 H   0  0  0  0  0  0  0  0  0  0  0  0
   -6.9488    0.5417   -1.2794 H   0  0  0  0  0  0  0  0  0  0  0  0
    1.2091    3.5099   -0.1617 C   0  0  1  0  0  0  0  0  0  0  0  0
   -0.0702    2.0808   -1.2481 H   0  0  0  0  0  0  0  0  0  0  0  0
   -0.0425    1.8915    0.5397 H   0  0  0  0  0  0  0  0  0  0  0  0
    2.4102    2.5198   -0.2293 C   0  0  0  0  0  0  0  0  0  0  0  0
    3.7818    3.1374    0.1049 C   0  0  0  0  0  0  0  0  0  0  0  0
    2.4489    2.0413   -1.2331 H   0  0  0  0  0  0  0  0  0  0  0  0
    2.2393    1.7204    0.5264 H   0  0  0  0  0  0  0  0  0  0  0  0
    4.8743    2.0602    0.1208 C   0  0  0  0  0  0  0  0  0  0  0  0
    3.7295    3.6167    1.1072 H   0  0  0  0  0  0  0  0  0  0  0  0
    4.0709    3.8989   -0.6456 H   0  0  0  0  0  0  0  0  0  0  0  0
    6.2358    2.6586    0.4638 C   0  0  0  0  0  0  0  0  0  0  0  0
    6.2080    3.1298    1.4694 H   0  0  0  0  0  0  0  0  0  0  0  0
    6.5232    3.4227   -0.2896 H   0  0  0  0  0  0  0  0  0  0  0  0
    7.0043    1.8572    0.4678 H   0  0  0  0  0  0  0  0  0  0  0  0
    4.9363    1.5768   -0.8787 H   0  0  0  0  0  0  0  0  0  0  0  0
    4.6256    1.2841    0.8772 H   0  0  0  0  0  0  0  0  0  0  0  0
   -4.0594    4.2352    1.0176 C   0  0  0  0  0  0  0  0  0  0  0  0
   -3.9193    3.6368   -1.0778 H   0  0  0  0  0  0  0  0  0  0  0  0
   -5.1595    5.2698    0.7462 C   0  0  0  0  0  0  0  0  0  0  0  0
   -4.9778    5.7670   -0.2304 H   0  0  0  0  0  0  0  0  0  0  0  0
   -5.1262    6.0464    1.5397 H   0  0  0  0  0  0  0  0  0  0  0  0
   -6.1820    4.8737    0.7482 H   0  0  0  0  0  0  0  0  0  0  0  0
   -3.1545    4.8681    1.0539 H   0  0  0  0  0  0  0  0  0  0  0  0
   -4.1799    3.7645    2.0168 H   0  0  0  0  0  0  0  0  0  0  0  0
    1.3452    4.6305   -1.2374 C   0  0  0  0  0  0  0  0  0  0  0  0
    1.2322    3.9801    0.8467 H   0  0  0  0  0  0  0  0  0  0  0  0
    0.4922    5.8841   -0.9990 C   0  0  0  0  0  0  0  0  0  0  0  0
    0.7214    6.3125   -0.0000 H   0  0  0  0  0  0  0  0  0  0  0  0
   -0.5926    5.7305   -1.0713 H   0  0  0  0  0  0  0  0  0  0  0  0
    0.7488    6.6443   -1.7672 H   0  0  0  0  0  0  0  0  0  0  0  0
    1.1776    4.2145   -2.2541 H   0  0  0  0  0  0  0  0  0  0  0  0
    2.3724    5.0361   -1.2101 H   0  0  0  0  0  0  0  0  0  0  0  0
  1  7  1  0  0  0  0
  1  8  1  0  0  0  0
  2 23  1  0  0  0  0
  2 24  1  0  0  0  0
  3  2  1  0  0  0  0
  3  1  1  0  0  0  0
  4  3  1  0  0  0  0
  5  3  1  0  0  0  0
  6  1  1  0  0  0  0
  6 39  1  6  0  0  0
  9  6  1  0  0  0  0
  9 11  1  0  0  0  0
  9 12  1  0  0  0  0
 10  9  1  0  0  0  0
 10 14  1  0  0  0  0
 10 15  1  0  0  0  0
 13 10  1  0  0  0  0
 13 20  1  0  0  0  0
 13 21  1  0  0  0  0
 16 13  1  0  0  0  0
 16 17  1  0  0  0  0
 16 18  1  0  0  0  0
 16 19  1  0  0  0  0
 22  2  1  0  0  0  0
 22 47  1  1  0  0  0
 25 22  1  0  0  0  0
 25 27  1  0  0  0  0
 25 28  1  0  0  0  0
 26 25  1  0  0  0  0
 26 30  1  0  0  0  0
 26 31  1  0  0  0  0
 29 26  1  0  0  0  0
 29 36  1  0  0  0  0
 29 37  1  0  0  0  0
 32 29  1  0  0  0  0
 32 33  1  0  0  0  0
 32 34  1  0  0  0  0
 32 35  1  0  0  0  0
 38  6  1  0  0  0  0
 38 44  1  0  0  0  0
 38 45  1  0  0  0  0
 40 38  1  0  0  0  0
 40 41  1  0  0  0  0
 40 42  1  0  0  0  0
 40 43  1  0  0  0  0
 46 22  1  0  0  0  0
 46 52  1  0  0  0  0
 46 53  1  0  0  0  0
 48 46  1  0  0  0  0
 48 49  1  0  0  0  0
 48 50  1  0  0  0  0
 48 51  1  0  0  0  0
M  END
