
 OpenBabel11162015293D

 25 24  0  0  0  0  0  0  0  0999 V2000
    0.0329    2.1827   -0.2241 N   0  3  0  0  0  0  0  0  0  0  0  0
    0.0313    3.3717   -1.2034 C   0  0  0  0  0  0  0  0  0  0  0  0
    0.0189    4.3006   -0.6249 H   0  0  0  0  0  0  0  0  0  0  0  0
   -0.8678    3.2989   -1.8242 H   0  0  0  0  0  0  0  0  0  0  0  0
    0.9318    3.3155   -1.8210 H   0  0  0  0  0  0  0  0  0  0  0  0
    0.0353    0.9190   -1.0754 C   0  0  0  0  0  0  0  0  0  0  0  0
    0.2032    0.0583   -0.4232 H   0  0  0  0  0  0  0  0  0  0  0  0
    0.8348    0.9872   -1.8186 H   0  0  0  0  0  0  0  0  0  0  0  0
   -0.9158    0.8543   -1.6114 H   0  0  0  0  0  0  0  0  0  0  0  0
   -1.2476    2.3262    0.6795 C   0  0  0  0  0  0  0  0  0  0  0  0
    1.2864    2.3103    0.6948 C   0  0  0  0  0  0  0  0  0  0  0  0
   -2.1736    1.0992    0.7885 C   0  0  0  0  0  0  0  0  0  0  0  0
   -1.8105    3.1883    0.3034 H   0  0  0  0  0  0  0  0  0  0  0  0
   -0.9043    2.5991    1.6831 H   0  0  0  0  0  0  0  0  0  0  0  0
    2.5643    1.6038    0.2140 C   0  0  0  0  0  0  0  0  0  0  0  0
    1.0197    1.8925    1.6722 H   0  0  0  0  0  0  0  0  0  0  0  0
    1.4611    3.3839    0.8407 H   0  0  0  0  0  0  0  0  0  0  0  0
   -3.4435    1.4294    0.2328 O   0  0  0  0  0  0  0  0  0  0  0  0
   -2.3131    0.8187    1.8377 H   0  0  0  0  0  0  0  0  0  0  0  0
   -1.8306    0.2037    0.2724 H   0  0  0  0  0  0  0  0  0  0  0  0
   -4.0906    1.4919    0.9622 H   0  0  0  0  0  0  0  0  0  0  0  0
    3.6890    2.4050    0.5506 O   0  0  0  0  0  0  0  0  0  0  0  0
    2.6009    1.4456   -0.8627 H   0  0  0  0  0  0  0  0  0  0  0  0
    2.6627    0.6380    0.7230 H   0  0  0  0  0  0  0  0  0  0  0  0
    4.4830    1.9950    0.1522 H   0  0  0  0  0  0  0  0  0  0  0  0
  1  2  1  0  0  0  0
  1  6  1  0  0  0  0
  1 10  1  0  0  0  0
  1 11  1  0  0  0  0
  2  3  1  0  0  0  0
  2  4  1  0  0  0  0
  2  5  1  0  0  0  0
  6  7  1  0  0  0  0
  6  8  1  0  0  0  0
  6  9  1  0  0  0  0
 10 12  1  0  0  0  0
 10 13  1  0  0  0  0
 10 14  1  0  0  0  0
 11 15  1  0  0  0  0
 11 16  1  0  0  0  0
 11 17  1  0  0  0  0
 12 18  1  0  0  0  0
 12 19  1  0  0  0  0
 12 20  1  0  0  0  0
 15 22  1  0  0  0  0
 15 23  1  0  0  0  0
 15 24  1  0  0  0  0
 18 21  1  0  0  0  0
 22 25  1  0  0  0  0
M  CHG  1   1   1
M  END