
 OpenBabel11162015223D

 26 25  0  0  0  0  0  0  0  0999 V2000
   -1.4096    1.1987    0.0391 N   0  3  0  0  0  0  0  0  0  0  0  0
   -0.5155    2.1476   -0.7986 C   0  0  0  0  0  0  0  0  0  0  0  0
    0.7803    2.5150   -0.0659 C   0  0  0  0  0  0  0  0  0  0  0  0
   -1.1239    3.0309   -1.0327 H   0  0  0  0  0  0  0  0  0  0  0  0
   -0.2840    1.6290   -1.7353 H   0  0  0  0  0  0  0  0  0  0  0  0
    1.3830    3.8488   -0.5046 C   0  0  0  0  0  0  0  0  0  0  0  0
    0.6305    2.5749    1.0159 H   0  0  0  0  0  0  0  0  0  0  0  0
    1.5088    1.7131   -0.2449 H   0  0  0  0  0  0  0  0  0  0  0  0
    2.8179    3.9694   -0.0047 C   0  0  0  0  0  0  0  0  0  0  0  0
    0.7878    4.6693   -0.0838 H   0  0  0  0  0  0  0  0  0  0  0  0
    1.3639    3.9539   -1.5937 H   0  0  0  0  0  0  0  0  0  0  0  0
    2.8707    3.8427    1.0821 H   0  0  0  0  0  0  0  0  0  0  0  0
    3.2349    4.9492   -0.2545 H   0  0  0  0  0  0  0  0  0  0  0  0
    3.4516    3.2034   -0.4651 H   0  0  0  0  0  0  0  0  0  0  0  0
   -2.1879    2.0163    1.0673 C   0  0  0  0  0  0  0  0  0  0  0  0
   -2.8800    2.6719    0.5273 H   0  0  0  0  0  0  0  0  0  0  0  0
   -1.4851    2.6125    1.6551 H   0  0  0  0  0  0  0  0  0  0  0  0
   -2.7402    1.3313    1.7135 H   0  0  0  0  0  0  0  0  0  0  0  0
   -2.4238    0.5032   -0.8757 C   0  0  0  0  0  0  0  0  0  0  0  0
   -1.8994   -0.2527   -1.4668 H   0  0  0  0  0  0  0  0  0  0  0  0
   -2.8818    1.2543   -1.5270 H   0  0  0  0  0  0  0  0  0  0  0  0
   -3.1829    0.0275   -0.2470 H   0  0  0  0  0  0  0  0  0  0  0  0
   -0.6039    0.1015    0.7331 C   0  0  0  0  0  0  0  0  0  0  0  0
    0.0587    0.5515    1.4776 H   0  0  0  0  0  0  0  0  0  0  0  0
   -0.0266   -0.4317   -0.0277 H   0  0  0  0  0  0  0  0  0  0  0  0
   -1.3003   -0.5758    1.2333 H   0  0  0  0  0  0  0  0  0  0  0  0
  1  2  1  0  0  0  0
  1 15  1  0  0  0  0
  1 19  1  0  0  0  0
  1 23  1  0  0  0  0
  2  3  1  0  0  0  0
  2  4  1  0  0  0  0
  2  5  1  0  0  0  0
  3  6  1  0  0  0  0
  3  7  1  0  0  0  0
  3  8  1  0  0  0  0
  6  9  1  0  0  0  0
  6 10  1  0  0  0  0
  6 11  1  0  0  0  0
  9 12  1  0  0  0  0
  9 13  1  0  0  0  0
  9 14  1  0  0  0  0
 15 16  1  0  0  0  0
 15 17  1  0  0  0  0
 15 18  1  0  0  0  0
 19 20  1  0  0  0  0
 19 21  1  0  0  0  0
 19 22  1  0  0  0  0
 23 24  1  0  0  0  0
 23 25  1  0  0  0  0
 23 26  1  0  0  0  0
M  CHG  1   1   1
M  END