
 OpenBabel11162012593D

 33 33  0  0  0  0  0  0  0  0999 V2000
   -3.4476    0.9832    1.1770 C   0  0  0  0  0  0  0  0  0  0  0  0
   -2.8633    1.3755   -0.1774 C   0  0  0  0  0  0  0  0  0  0  0  0
   -1.3737    1.7421   -0.0224 C   0  0  0  0  0  0  0  0  0  0  0  0
   -3.4202    2.2470   -0.5841 H   0  0  0  0  0  0  0  0  0  0  0  0
   -2.9879    0.5403   -0.8974 H   0  0  0  0  0  0  0  0  0  0  0  0
   -2.6516   -0.1843    1.7558 C   0  0  0  0  0  0  0  0  0  0  0  0
   -4.5159    0.6986    1.0649 H   0  0  0  0  0  0  0  0  0  0  0  0
   -3.3892    1.8521    1.8693 H   0  0  0  0  0  0  0  0  0  0  0  0
   -1.1633    0.2047    1.8709 C   0  0  0  0  0  0  0  0  0  0  0  0
   -2.7803   -1.0818    1.1178 H   0  0  0  0  0  0  0  0  0  0  0  0
   -3.0485   -0.4411    2.7614 H   0  0  0  0  0  0  0  0  0  0  0  0
   -0.5497    0.6443    0.5756 N   0  3  0  0  0  0  0  0  0  0  0  0
   -0.6005   -0.6534    2.3043 H   0  0  0  0  0  0  0  0  0  0  0  0
   -1.1124    1.0345    2.6145 H   0  0  0  0  0  0  0  0  0  0  0  0
   -1.3169    2.6481    0.6244 H   0  0  0  0  0  0  0  0  0  0  0  0
   -0.9963    2.0228   -1.0292 H   0  0  0  0  0  0  0  0  0  0  0  0
   -0.4398   -0.5122   -0.3567 C   0  0  0  0  0  0  0  0  0  0  0  0
   -1.4127   -0.9918   -0.5682 H   0  0  0  0  0  0  0  0  0  0  0  0
    0.2244   -1.3008    0.0620 H   0  0  0  0  0  0  0  0  0  0  0  0
   -0.0430   -0.2071   -1.3460 H   0  0  0  0  0  0  0  0  0  0  0  0
    0.8286    1.1453    0.8995 C   0  0  0  0  0  0  0  0  0  0  0  0
    1.6270    1.7486   -0.2835 C   0  0  0  0  0  0  0  0  0  0  0  0
    0.7696    1.9381    1.6812 H   0  0  0  0  0  0  0  0  0  0  0  0
    1.4318    0.3134    1.3328 H   0  0  0  0  0  0  0  0  0  0  0  0
    3.0305    2.1735    0.1672 C   0  0  0  0  0  0  0  0  0  0  0  0
    1.1048    2.6456   -0.6765 H   0  0  0  0  0  0  0  0  0  0  0  0
    1.7459    1.0081   -1.0992 H   0  0  0  0  0  0  0  0  0  0  0  0
    3.8140    2.7967   -0.9854 C   0  0  0  0  0  0  0  0  0  0  0  0
    3.5855    1.2845    0.5391 H   0  0  0  0  0  0  0  0  0  0  0  0
    2.9552    2.9170    0.9904 H   0  0  0  0  0  0  0  0  0  0  0  0
    3.9174    2.0716   -1.8207 H   0  0  0  0  0  0  0  0  0  0  0  0
    4.8281    3.0831   -0.6356 H   0  0  0  0  0  0  0  0  0  0  0  0
    3.2955    3.7070   -1.3553 H   0  0  0  0  0  0  0  0  0  0  0  0
  1  2  1  0  0  0  0
  1  6  1  0  0  0  0
  1  7  1  0  0  0  0
  1  8  1  0  0  0  0
  2  3  1  0  0  0  0
  2  4  1  0  0  0  0
  2  5  1  0  0  0  0
  3 12  1  0  0  0  0
  3 15  1  0  0  0  0
  3 16  1  0  0  0  0
  6  9  1  0  0  0  0
  6 10  1  0  0  0  0
  6 11  1  0  0  0  0
  9 12  1  0  0  0  0
  9 13  1  0  0  0  0
  9 14  1  0  0  0  0
 12 17  1  0  0  0  0
 12 21  1  0  0  0  0
 17 18  1  0  0  0  0
 17 19  1  0  0  0  0
 17 20  1  0  0  0  0
 21 22  1  0  0  0  0
 21 23  1  0  0  0  0
 21 24  1  0  0  0  0
 22 25  1  0  0  0  0
 22 26  1  0  0  0  0
 22 27  1  0  0  0  0
 25 28  1  0  0  0  0
 25 29  1  0  0  0  0
 25 30  1  0  0  0  0
 28 31  1  0  0  0  0
 28 32  1  0  0  0  0
 28 33  1  0  0  0  0
M  CHG  1  12   1
M  END