
 OpenBabel06252320303D

  8  7  0  0  0  0  0  0  0  0999 V2000
    1.0201   -0.0607    0.0327 C   0  0  0  0  0  0  0  0  0  0  0  0
    0.5966   -0.5937    1.2237 F   0  0  0  0  0  0  0  0  0  0  0  0
    0.6029    1.2462    0.0407 F   0  0  0  0  0  0  0  0  0  0  0  0
    2.3890   -0.0148    0.1115 F   0  0  0  0  0  0  0  0  0  0  0  0
    0.4058   -1.0143   -1.4536 S   0  0  0  0  0  0  0  0  0  0  0  0
   -1.0605   -0.9601   -1.3772 O   0  0  0  0  0  0  0  0  0  0  0  0
    0.9415   -2.3736   -1.2979 O   0  0  0  0  0  0  0  0  0  0  0  0
    0.9486   -0.3112   -2.6240 O   0  5  0  0  0  0  0  0  0  0  0  0
  1  3  1  0  0  0  0
  1  5  1  0  0  0  0
  1  2  1  0  0  0  0
  1  4  1  0  0  0  0
  5  7  2  0  0  0  0
  5  6  2  0  0  0  0
  5  8  1  0  0  0  0
M  CHG  1   8  -1
M  END
