
 OpenBabel11272310033D

  4  3  0  0  0  0  0  0  0  0999 V2000
    1.0294    0.6318    0.0000 O   0  5  0  0  0  0  0  0  0  0  0  0
    0.1675   -1.1961    0.0000 O   0  5  0  0  0  0  0  0  0  0  0  0
   -1.1508    0.5426    0.0000 O   0  0  0  0  0  0  0  0  0  0  0  0
   -0.0460    0.0217    0.0000 C   0  0  0  0  0  0  0  0  0  0  0  0
  1  4  1  0  0  0  0
  2  4  1  0  0  0  0
  3  4  2  0  0  0  0
M  CHG  2   1  -1   2  -1
M  END
