
 OpenBabel01072117043D

 29 30  0  0  0  0  0  0  0  0999 V2000
   -1.5127   -4.3912    0.5642 C   0  0  0  0  0  0  0  0  0  0  0  0
   -0.1988   -4.2850    0.1177 C   0  0  0  0  0  0  0  0  0  0  0  0
   -2.4406   -3.3842    0.2810 C   0  0  0  0  0  0  0  0  0  0  0  0
   -2.0534   -2.2329   -0.4476 C   0  0  0  0  0  0  0  0  0  0  0  0
   -0.7118   -2.1519   -0.9191 C   0  0  0  0  0  0  0  0  0  0  0  0
    0.1964   -3.1764   -0.6263 C   0  0  0  0  0  0  0  0  0  0  0  0
   -0.1172   -0.8565   -1.9578 Cl  0  0  0  0  0  0  0  0  0  0  0  0
   -4.0800   -3.5912    0.8909 Cl  0  0  0  0  0  0  0  0  0  0  0  0
   -1.8117   -5.2627    1.1330 H   0  0  0  0  0  0  0  0  0  0  0  0
    0.5122   -5.0714    0.3363 H   0  0  0  0  0  0  0  0  0  0  0  0
    1.2149   -3.1209   -0.9899 H   0  0  0  0  0  0  0  0  0  0  0  0
   -3.0332   -1.2229   -0.7264 N   0  0  0  0  0  0  0  0  0  0  0  0
   -4.0090   -1.5360   -0.7867 H   0  0  0  0  0  0  0  0  0  0  0  0
   -2.8101    0.1941   -0.7031 C   0  0  0  0  0  0  0  0  0  0  0  0
   -1.7301    0.7264    0.0359 C   0  0  0  0  0  0  0  0  0  0  0  0
   -1.5144    2.1015    0.1124 C   0  0  0  0  0  0  0  0  0  0  0  0
   -2.3754    2.9794   -0.5359 C   0  0  0  0  0  0  0  0  0  0  0  0
   -3.6966    1.1003   -1.3591 C   0  0  0  0  0  0  0  0  0  0  0  0
   -3.4572    2.4857   -1.2614 C   0  0  0  0  0  0  0  0  0  0  0  0
   -4.8926    0.6613   -2.1856 C   0  0  0  0  0  0  0  0  0  0  0  0
   -4.7554    1.1209   -3.6095 C   0  0  0  0  0  0  0  0  0  0  0  0
   -5.8114    1.0978   -1.7377 H   0  0  0  0  0  0  0  0  0  0  0  0
   -5.0315   -0.4325   -2.2231 H   0  0  0  0  0  0  0  0  0  0  0  0
   -4.1156    3.1907   -1.7547 H   0  0  0  0  0  0  0  0  0  0  0  0
   -2.2078    4.0469   -0.4726 H   0  0  0  0  0  0  0  0  0  0  0  0
   -0.6802    2.4871    0.6843 H   0  0  0  0  0  0  0  0  0  0  0  0
   -1.0530    0.0778    0.5750 H   0  0  0  0  0  0  0  0  0  0  0  0
   -5.6615    1.9662   -4.1369 O   0  5  0  0  0  0  0  0  0  0  0  0
   -3.8268    0.7250   -4.2965 O   0  0  0  0  0  0  0  0  0  0  0  0
  1  2  1  0  0  0  0
  1  9  1  0  0  0  0
  2  6  2  0  0  0  0
  2 10  1  0  0  0  0
  3  4  1  0  0  0  0
  3  1  2  0  0  0  0
  3  8  1  0  0  0  0
  4  5  2  0  0  0  0
  4 12  1  0  0  0  0
  5  6  1  0  0  0  0
  5  7  1  0  0  0  0
  6 11  1  0  0  0  0
 12 13  1  0  0  0  0
 12 14  1  0  0  0  0
 14 15  1  0  0  0  0
 15 16  2  0  0  0  0
 15 27  1  0  0  0  0
 16 17  1  0  0  0  0
 16 26  1  0  0  0  0
 17 19  2  0  0  0  0
 17 25  1  0  0  0  0
 18 19  1  0  0  0  0
 18 20  1  0  0  0  0
 18 14  2  0  0  0  0
 19 24  1  0  0  0  0
 20 21  1  0  0  0  0
 20 22  1  0  0  0  0
 20 23  1  0  0  0  0
 21 28  1  0  0  0  0
 21 29  2  0  0  0  0
M  CHG  1  28  -1
M  END
