
 OpenBabel10172316533D

 31 30  0  0  0  0  0  0  0  0999 V2000
   -4.8921    3.3416   -1.2496 O   0  5  0  0  0  0  0  0  0  0  0  0
   -4.9686    1.0775   -1.5351 O   0  0  0  0  0  0  0  0  0  0  0  0
    1.2709   -0.6057   -0.1502 C   0  0  0  0  0  0  0  0  0  0  0  0
   -0.2101   -0.6456   -0.5306 C   0  0  0  0  0  0  0  0  0  0  0  0
    1.8853   -2.0065   -0.1585 C   0  0  0  0  0  0  0  0  0  0  0  0
   -0.8246    0.7551   -0.5221 C   0  0  0  0  0  0  0  0  0  0  0  0
    3.3662   -1.9667    0.2222 C   0  0  0  0  0  0  0  0  0  0  0  0
   -2.3057    0.7153   -0.9024 C   0  0  0  0  0  0  0  0  0  0  0  0
    3.9801   -3.3664    0.2140 C   0  0  0  0  0  0  0  0  0  0  0  0
   -2.9205    2.1113   -0.8944 C   0  0  0  0  0  0  0  0  0  0  0  0
    5.4523   -3.3313    0.5921 C   0  0  0  0  0  0  0  0  0  0  0  0
   -4.4062    2.1734   -1.2637 C   0  0  0  0  0  0  0  0  0  0  0  0
    1.3822   -0.1617    0.8465 H   0  0  0  0  0  0  0  0  0  0  0  0
    1.8136    0.0377   -0.8533 H   0  0  0  0  0  0  0  0  0  0  0  0
   -0.3215   -1.0895   -1.5274 H   0  0  0  0  0  0  0  0  0  0  0  0
   -0.7528   -1.2891    0.1725 H   0  0  0  0  0  0  0  0  0  0  0  0
    1.7741   -2.4505   -1.1552 H   0  0  0  0  0  0  0  0  0  0  0  0
    1.3425   -2.6499    0.5446 H   0  0  0  0  0  0  0  0  0  0  0  0
   -0.2819    1.3985   -1.2254 H   0  0  0  0  0  0  0  0  0  0  0  0
   -0.7130    1.1990    0.4746 H   0  0  0  0  0  0  0  0  0  0  0  0
    3.9093   -1.3232   -0.4807 H   0  0  0  0  0  0  0  0  0  0  0  0
    3.4777   -1.5225    1.2189 H   0  0  0  0  0  0  0  0  0  0  0  0
   -2.4171    0.2684   -1.8981 H   0  0  0  0  0  0  0  0  0  0  0  0
   -2.8475    0.0691   -0.2007 H   0  0  0  0  0  0  0  0  0  0  0  0
    3.8752   -3.8134   -0.7814 H   0  0  0  0  0  0  0  0  0  0  0  0
    3.4434   -4.0128    0.9182 H   0  0  0  0  0  0  0  0  0  0  0  0
   -2.3773    2.7537   -1.5987 H   0  0  0  0  0  0  0  0  0  0  0  0
   -2.8087    2.5539    0.1032 H   0  0  0  0  0  0  0  0  0  0  0  0
    5.8710   -4.3425    0.5799 H   0  0  0  0  0  0  0  0  0  0  0  0
    5.5896   -2.9189    1.5968 H   0  0  0  0  0  0  0  0  0  0  0  0
    6.0238   -2.7184   -0.1123 H   0  0  0  0  0  0  0  0  0  0  0  0
  1 12  1  0  0  0  0
  2 12  2  0  0  0  0
  3  4  1  0  0  0  0
  3  5  1  0  0  0  0
  3 13  1  0  0  0  0
  3 14  1  0  0  0  0
  4  6  1  0  0  0  0
  4 15  1  0  0  0  0
  4 16  1  0  0  0  0
  5  7  1  0  0  0  0
  5 17  1  0  0  0  0
  5 18  1  0  0  0  0
  6  8  1  0  0  0  0
  6 19  1  0  0  0  0
  6 20  1  0  0  0  0
  7  9  1  0  0  0  0
  7 21  1  0  0  0  0
  7 22  1  0  0  0  0
  8 10  1  0  0  0  0
  8 23  1  0  0  0  0
  8 24  1  0  0  0  0
  9 11  1  0  0  0  0
  9 25  1  0  0  0  0
  9 26  1  0  0  0  0
 10 12  1  0  0  0  0
 10 27  1  0  0  0  0
 10 28  1  0  0  0  0
 11 29  1  0  0  0  0
 11 30  1  0  0  0  0
 11 31  1  0  0  0  0
M  CHG  1   1  -1
M  END
