
 OpenBabel03131815383D

 20 19  0  0  0  0  0  0  0  0999 V2000
   -5.6038    1.5638   -0.0807 C   0  0  0  0  0  0  0  0  0  0  0  0
   -4.5406    2.3631    0.0595 C   0  0  0  0  0  0  0  0  0  0  0  0
   -3.1461    1.7689   -0.0845 C   0  0  0  0  0  0  0  0  0  0  0  0
   -0.6814    1.7411   -0.1349 C   0  0  0  0  0  0  0  0  0  0  0  0
    0.7283    2.3130   -0.0463 C   0  0  0  0  0  0  0  0  0  0  0  0
    1.7727    1.4977   -0.2281 C   0  0  0  0  0  0  0  0  0  0  0  0
   -1.9020    2.5654    0.0519 N   0  0  0  0  0  0  0  0  0  0  0  0
   -0.7178    0.9228    0.6186 H   0  0  0  0  0  0  0  0  0  0  0  0
   -0.7498    1.2746   -1.1430 H   0  0  0  0  0  0  0  0  0  0  0  0
   -3.1272    1.3013   -1.0943 H   0  0  0  0  0  0  0  0  0  0  0  0
   -3.0952    0.9496    0.6670 H   0  0  0  0  0  0  0  0  0  0  0  0
   -1.8778    3.9271    0.3233 C   0  0  0  0  0  0  0  0  0  0  0  0
   -3.0017    4.6368    0.4854 O   0  0  0  0  0  0  0  0  0  0  0  0
   -0.8298    4.5314    0.4249 O   0  0  0  0  0  0  0  0  0  0  0  0
   -6.6063    1.9684    0.0183 H   0  0  0  0  0  0  0  0  0  0  0  0
   -5.4818    0.5058   -0.2943 H   0  0  0  0  0  0  0  0  0  0  0  0
   -4.7592    3.3905    0.2687 H   0  0  0  0  0  0  0  0  0  0  0  0
    2.7843    1.8869   -0.1687 H   0  0  0  0  0  0  0  0  0  0  0  0
    1.6260    0.4417   -0.4363 H   0  0  0  0  0  0  0  0  0  0  0  0
    0.9689    3.3396    0.1543 H   0  0  0  0  0  0  0  0  0  0  0  0
  1  2  2  0  0  0  0
  1 15  1  0  0  0  0
  1 16  1  0  0  0  0
  2 17  1  0  0  0  0
  3  2  1  0  0  0  0
  3 10  1  0  0  0  0
  3 11  1  0  0  0  0
  4  8  1  0  0  0  0
  4  9  1  0  0  0  0
  5  4  1  0  0  0  0
  5 20  1  0  0  0  0
  6  5  2  0  0  0  0
  6 18  1  0  0  0  0
  6 19  1  0  0  0  0
  7  4  1  0  0  0  0
  7  3  1  0  0  0  0
 12  7  1  0  0  0  0
 12 13  1  0  0  0  0
 14 12  2  0  0  0  0
M  END
