
 OpenBabel03131815393D

 12 11  0  0  0  0  0  0  0  0999 V2000
   -5.8573    0.5516    0.0501 C   0  0  0  0  0  0  0  0  0  0  0  0
   -3.3671    0.5929   -0.0049 C   0  0  0  0  0  0  0  0  0  0  0  0
   -4.6012   -0.1804   -0.0062 N   0  0  0  0  0  0  0  0  0  0  0  0
   -3.3517    1.2717   -0.8837 H   0  0  0  0  0  0  0  0  0  0  0  0
   -2.4564   -0.0402   -0.0496 H   0  0  0  0  0  0  0  0  0  0  0  0
   -3.3108    1.2032    0.9214 H   0  0  0  0  0  0  0  0  0  0  0  0
   -5.9335    1.2290   -0.8267 H   0  0  0  0  0  0  0  0  0  0  0  0
   -5.8925    1.1605    0.9783 H   0  0  0  0  0  0  0  0  0  0  0  0
   -6.7479   -0.1101    0.0452 H   0  0  0  0  0  0  0  0  0  0  0  0
   -4.5834   -1.5511   -0.0587 C   0  0  0  0  0  0  0  0  0  0  0  0
   -3.5242   -2.1590   -0.1058 O   0  0  0  0  0  0  0  0  0  0  0  0
   -5.7345   -2.2540   -0.0593 O   0  0  0  0  0  0  0  0  0  0  0  0
  1  7  1  0  0  0  0
  1  8  1  0  0  0  0
  1  9  1  0  0  0  0
  2  4  1  0  0  0  0
  2  5  1  0  0  0  0
  2  6  1  0  0  0  0
  3  2  1  0  0  0  0
  3  1  1  0  0  0  0
  3 10  1  0  0  0  0
 10 11  2  0  0  0  0
 10 12  1  0  0  0  0
M  END
