
 OpenBabel03131815393D

 11 10  0  0  0  0  0  0  0  0999 V2000
   -5.7023    0.7619    0.0150 C   0  0  0  0  0  0  0  0  0  0  0  0
   -3.2909    0.6988    0.0899 C   0  0  0  0  0  0  0  0  0  0  0  0
   -4.4979    0.0748   -0.4568 N   0  0  0  0  0  0  0  0  0  0  0  0
   -5.6984    1.8262   -0.3080 H   0  0  0  0  0  0  0  0  0  0  0  0
   -5.7720    0.7140    1.1240 H   0  0  0  0  0  0  0  0  0  0  0  0
   -6.6039    0.2720   -0.4118 H   0  0  0  0  0  0  0  0  0  0  0  0
   -4.5335   -0.9268   -0.1554 H   0  0  0  0  0  0  0  0  0  0  0  0
   -3.2927    0.6492    1.2010 H   0  0  0  0  0  0  0  0  0  0  0  0
   -3.2191    1.7613   -0.2310 H   0  0  0  0  0  0  0  0  0  0  0  0
   -2.3914    0.1618   -0.2810 H   0  0  0  0  0  0  0  0  0  0  0  0
   -4.4643    0.1190   -1.5019 H   0  0  0  0  0  0  0  0  0  0  0  0
  1  3  1  0  0  0  0
  1  4  1  0  0  0  0
  1  5  1  0  0  0  0
  1  6  1  0  0  0  0
  2  8  1  0  0  0  0
  2  9  1  0  0  0  0
  2 10  1  0  0  0  0
  3  2  1  0  0  0  0
  3  7  1  0  0  0  0
 11  3  1  0  0  0  0
M  END
