
 OpenBabel11162010073D

 13 12  0  0  0  0  0  0  0  0999 V2000
   -3.2679   -1.0671    1.8281 C   0  0  0  0  0  0  0  0  0  0  0  0
   -2.6099    0.1345    2.1366 O   0  0  0  0  0  0  0  0  0  0  0  0
   -4.0348   -0.9102    1.0389 H   0  0  0  0  0  0  0  0  0  0  0  0
   -2.5490   -1.8694    1.5513 H   0  0  0  0  0  0  0  0  0  0  0  0
   -3.7997   -1.4159    2.7368 H   0  0  0  0  0  0  0  0  0  0  0  0
   -1.6598    0.6023    0.7454 P   0  0  0  0  0  0  0  0  0  0  0  0
   -0.4713   -0.6176    0.3458 O   0  0  0  0  0  0  0  0  0  0  0  0
    0.2788   -0.1496   -0.7442 C   0  0  0  0  0  0  0  0  0  0  0  0
   -0.3578   -0.0248   -1.6473 H   0  0  0  0  0  0  0  0  0  0  0  0
    1.0461   -0.9115   -0.9914 H   0  0  0  0  0  0  0  0  0  0  0  0
    0.8236    0.7859   -0.4900 H   0  0  0  0  0  0  0  0  0  0  0  0
   -2.6290    0.7715   -0.4575 O   0  0  0  0  0  0  0  0  0  0  0  0
   -0.9182    2.1464    1.0304 O   0  5  0  0  0  0  0  0  0  0  0  0
  1  2  1  0  0  0  0
  1  3  1  0  0  0  0
  1  4  1  0  0  0  0
  1  5  1  0  0  0  0
  2  6  1  0  0  0  0
  6  7  1  0  0  0  0
  6 12  2  0  0  0  0
  6 13  1  0  0  0  0
  7  8  1  0  0  0  0
  8  9  1  0  0  0  0
  8 10  1  0  0  0  0
  8 11  1  0  0  0  0
M  CHG  1  13  -1
M  END
