
 OpenBabel10092314503D

 21 21  0  0  0  0  0  0  0  0999 V2000
    0.6714   -0.0002   -0.0004 N   0  3  0  0  0  0  0  0  0  0  0  0
   -0.2594    1.0913   -0.5676 C   0  0  0  0  0  0  0  0  0  0  0  0
   -0.2593   -1.0912    0.5679 C   0  0  0  0  0  0  0  0  0  0  0  0
   -1.6284    0.7567   -0.0091 C   0  0  0  0  0  0  0  0  0  0  0  0
   -1.6287   -0.7560    0.0106 C   0  0  0  0  0  0  0  0  0  0  0  0
    1.5529    0.5686    1.1009 C   0  0  0  0  0  0  0  0  0  0  0  0
    1.5514   -0.5694   -1.1026 C   0  0  0  0  0  0  0  0  0  0  0  0
   -0.2523    1.0097   -1.6604 H   0  0  0  0  0  0  0  0  0  0  0  0
    0.1043    2.0795   -0.2700 H   0  0  0  0  0  0  0  0  0  0  0  0
   -0.2511   -1.0094    1.6606 H   0  0  0  0  0  0  0  0  0  0  0  0
    0.1037   -2.0795    0.2700 H   0  0  0  0  0  0  0  0  0  0  0  0
   -2.4354    1.1679   -0.6219 H   0  0  0  0  0  0  0  0  0  0  0  0
   -1.7347    1.1546    1.0071 H   0  0  0  0  0  0  0  0  0  0  0  0
   -2.4353   -1.1669    0.6243 H   0  0  0  0  0  0  0  0  0  0  0  0
   -1.7362   -1.1539   -1.0054 H   0  0  0  0  0  0  0  0  0  0  0  0
    2.2045    1.3301    0.6623 H   0  0  0  0  0  0  0  0  0  0  0  0
    0.9098    1.0126    1.8666 H   0  0  0  0  0  0  0  0  0  0  0  0
    2.1458   -0.2484    1.5224 H   0  0  0  0  0  0  0  0  0  0  0  0
    0.9072   -1.0130   -1.8676 H   0  0  0  0  0  0  0  0  0  0  0  0
    2.1443    0.2473   -1.5248 H   0  0  0  0  0  0  0  0  0  0  0  0
    2.2031   -1.3312   -0.6648 H   0  0  0  0  0  0  0  0  0  0  0  0
  1  2  1  0  0  0  0
  1  3  1  0  0  0  0
  1  6  1  0  0  0  0
  1  7  1  0  0  0  0
  2  4  1  0  0  0  0
  2  8  1  0  0  0  0
  2  9  1  0  0  0  0
  3  5  1  0  0  0  0
  3 10  1  0  0  0  0
  3 11  1  0  0  0  0
  4  5  1  0  0  0  0
  4 12  1  0  0  0  0
  4 13  1  0  0  0  0
  5 14  1  0  0  0  0
  5 15  1  0  0  0  0
  6 16  1  0  0  0  0
  6 17  1  0  0  0  0
  6 18  1  0  0  0  0
  7 19  1  0  0  0  0
  7 20  1  0  0  0  0
  7 21  1  0  0  0  0
M  CHG  1   1   1
M  END
