
 OpenBabel11162013153D

 27 27  0  0  0  0  0  0  0  0999 V2000
   -2.3637   -2.0504   -0.8681 C   0  0  0  0  0  0  0  0  0  0  0  0
   -2.5860    0.4243   -0.6692 C   0  0  0  0  0  0  0  0  0  0  0  0
   -1.0647   -1.9833   -0.0400 C   0  0  0  0  0  0  0  0  0  0  0  0
   -1.2793    0.4486    0.1495 C   0  0  0  0  0  0  0  0  0  0  0  0
   -0.3434   -0.6780   -0.1699 N   0  3  0  0  0  0  0  0  0  0  0  0
   -0.4203   -2.8307   -0.3584 H   0  0  0  0  0  0  0  0  0  0  0  0
   -1.3417   -2.1554    1.0259 H   0  0  0  0  0  0  0  0  0  0  0  0
   -1.5780    0.3991    1.2229 H   0  0  0  0  0  0  0  0  0  0  0  0
   -0.7799    1.4326   -0.0028 H   0  0  0  0  0  0  0  0  0  0  0  0
    0.7708   -0.6062    0.8331 C   0  0  0  0  0  0  0  0  0  0  0  0
    1.8662   -1.6816    0.7058 C   0  0  0  0  0  0  0  0  0  0  0  0
    2.4019   -1.6154   -0.2616 H   0  0  0  0  0  0  0  0  0  0  0  0
    1.4578   -2.7028    0.8409 H   0  0  0  0  0  0  0  0  0  0  0  0
    2.6193   -1.5204    1.5059 H   0  0  0  0  0  0  0  0  0  0  0  0
    1.2758    0.3853    0.7692 H   0  0  0  0  0  0  0  0  0  0  0  0
    0.3595   -0.6911    1.8653 H   0  0  0  0  0  0  0  0  0  0  0  0
   -3.2974   -0.9112   -0.4663 C   0  0  0  0  0  0  0  0  0  0  0  0
   -2.8686   -3.0241   -0.6896 H   0  0  0  0  0  0  0  0  0  0  0  0
   -2.1396   -1.9886   -1.9532 H   0  0  0  0  0  0  0  0  0  0  0  0
   -3.5779   -1.0236    0.6046 H   0  0  0  0  0  0  0  0  0  0  0  0
   -4.2267   -0.9449   -1.0746 H   0  0  0  0  0  0  0  0  0  0  0  0
   -2.3836    0.5837   -1.7475 H   0  0  0  0  0  0  0  0  0  0  0  0
   -3.2488    1.2522   -0.3370 H   0  0  0  0  0  0  0  0  0  0  0  0
    0.2168   -0.5080   -1.5388 C   0  0  0  0  0  0  0  0  0  0  0  0
   -0.5622   -0.4571   -2.3214 H   0  0  0  0  0  0  0  0  0  0  0  0
    0.8142    0.4279   -1.6120 H   0  0  0  0  0  0  0  0  0  0  0  0
    0.8644   -1.3626   -1.8244 H   0  0  0  0  0  0  0  0  0  0  0  0
  1  3  1  0  0  0  0
  1 17  1  0  0  0  0
  1 18  1  0  0  0  0
  1 19  1  0  0  0  0
  2  4  1  0  0  0  0
  2 22  1  0  0  0  0
  2 23  1  0  0  0  0
  3  5  1  0  0  0  0
  3  6  1  0  0  0  0
  3  7  1  0  0  0  0
  4  5  1  0  0  0  0
  4  8  1  0  0  0  0
  4  9  1  0  0  0  0
  5 10  1  0  0  0  0
  5 24  1  0  0  0  0
 10 11  1  0  0  0  0
 10 15  1  0  0  0  0
 10 16  1  0  0  0  0
 11 12  1  0  0  0  0
 11 13  1  0  0  0  0
 11 14  1  0  0  0  0
 17  2  1  0  0  0  0
 17 20  1  0  0  0  0
 17 21  1  0  0  0  0
 24 25  1  0  0  0  0
 24 26  1  0  0  0  0
 24 27  1  0  0  0  0
M  CHG  1   5   1
M  END