
 OpenBabel11062222013D

 19 18  0  0  0  0  0  0  0  0999 V2000
   -2.4126    0.5405    2.4283 O   0  0  0  0  0  0  0  0  0  0  0  0
   -3.3892    1.2803    3.1284 C   0  0  0  0  0  0  0  0  0  0  0  0
   -1.2153    1.2852    2.3652 C   0  0  0  0  0  0  0  0  0  0  0  0
   -0.1690    0.4768    1.6084 C   0  0  0  0  0  0  0  0  0  0  0  0
   -0.8212    1.4854    3.3883 H   0  0  0  0  0  0  0  0  0  0  0  0
   -1.3744    2.2416    1.8157 H   0  0  0  0  0  0  0  0  0  0  0  0
    1.0240    1.2156    1.5446 O   0  0  0  0  0  0  0  0  0  0  0  0
   -0.0061   -0.4783    2.1572 H   0  0  0  0  0  0  0  0  0  0  0  0
   -0.5594    0.2775    0.5849 H   0  0  0  0  0  0  0  0  0  0  0  0
    2.1826    0.2642    0.6858 S   0  0  0  0  0  0  0  0  0  0  0  0
    2.5060   -1.2905    1.3392 O   0  0  0  0  0  0  0  0  0  0  0  0
    3.5034    1.0464    0.6427 O   0  0  0  0  0  0  0  0  0  0  0  0
    1.7784    0.1421   -0.7917 O   0  0  0  0  0  0  0  0  0  0  0  0
   -4.6745    0.4690    3.1893 C   0  0  0  0  0  0  0  0  0  0  0  0
   -3.0622    1.4783    4.1748 H   0  0  0  0  0  0  0  0  0  0  0  0
   -3.6152    2.2362    2.6029 H   0  0  0  0  0  0  0  0  0  0  0  0
   -4.4934   -0.4921    3.7159 H   0  0  0  0  0  0  0  0  0  0  0  0
   -5.0400    0.2572    2.1620 H   0  0  0  0  0  0  0  0  0  0  0  0
   -5.4538    1.0389    3.7382 H   0  0  0  0  0  0  0  0  0  0  0  0
  1  2  1  0  0  0  0
  1  3  1  0  0  0  0
  2 14  1  0  0  0  0
  2 15  1  0  0  0  0
  2 16  1  0  0  0  0
  3  4  1  0  0  0  0
  3  5  1  0  0  0  0
  3  6  1  0  0  0  0
  4  7  1  0  0  0  0
  4  8  1  0  0  0  0
  4  9  1  0  0  0  0
  7 10  1  0  0  0  0
 10 11  1  0  0  0  0
 10 12  2  0  0  0  0
 10 13  2  0  0  0  0
 14 17  1  0  0  0  0
 14 18  1  0  0  0  0
 14 19  1  0  0  0  0
M  END
