
 OpenBabel03251512533D

 12 11  0  0  0  0  0  0  0  0999 V2000
    0.2851    5.4489    2.2344 S   0  0  0  0  0  0  0  0  0  0  0  0
    1.6501    5.1699    2.8803 O   0  0  0  0  0  0  0  0  0  0  0  0
    0.0620    4.2423    1.3094 O   0  0  0  0  0  0  0  0  0  0  0  0
   -2.1453    5.7494    2.8876 C   0  0  0  0  0  0  0  0  0  0  0  0
    0.4200    6.8870    1.3057 O   0  0  0  0  0  0  0  0  0  0  0  0
   -0.9057    5.4700    3.4859 O   0  0  0  0  0  0  0  0  0  0  0  0
   -3.2190    5.7881    3.9642 C   0  0  0  0  0  0  0  0  0  0  0  0
   -3.2747    4.8069    4.4820 H   0  0  0  0  0  0  0  0  0  0  0  0
   -4.2053    6.0085    3.5039 H   0  0  0  0  0  0  0  0  0  0  0  0
   -2.9842    6.5789    4.7080 H   0  0  0  0  0  0  0  0  0  0  0  0
   -2.4178    4.9525    2.1600 H   0  0  0  0  0  0  0  0  0  0  0  0
   -2.1242    6.7445    2.3892 H   0  0  0  0  0  0  0  0  0  0  0  0
  1  2  2  0  0  0  0
  1  3  2  0  0  0  0
  1  5  1  0  0  0  0
  4 11  1  0  0  0  0
  4 12  1  0  0  0  0
  6  1  1  0  0  0  0
  6  4  1  0  0  0  0
  7  4  1  0  0  0  0
  7  8  1  0  0  0  0
  7  9  1  0  0  0  0
  7 10  1  0  0  0  0
M  END
