
 OpenBabel07222415343D

 19 18  0  0  1  0  0  0  0  0999 V2000
    3.1695    0.8040   -0.2700 O   0  0  0  0  0  0  0  0  0  0  0  0
   -0.4413   -1.7509    0.2945 O   0  5  0  0  0  0  0  0  0  0  0  0
   -2.4980   -0.7821   -0.0324 O   0  0  0  0  0  0  0  0  0  0  0  0
   -1.7163    1.5349    1.0494 N   0  0  0  0  0  0  0  0  0  0  0  0
    2.1402   -1.1819    0.0685 N   0  0  0  0  0  0  0  0  0  0  0  0
   -0.0103    1.2523   -0.7095 C   0  0  0  0  0  0  0  0  0  0  0  0
   -0.6342    0.6270    0.5416 C   0  0  2  0  0  0  0  0  0  0  0  0
    1.0685    0.4181   -1.4031 C   0  0  0  0  0  0  0  0  0  0  0  0
    2.2215    0.0569   -0.4931 C   0  0  0  0  0  0  0  0  0  0  0  0
   -1.2597   -0.7855    0.2281 C   0  0  0  0  0  0  0  0  0  0  0  0
    0.4236    2.2235   -0.4364 H   0  0  0  0  0  0  0  0  0  0  0  0
   -0.7945    1.4603   -1.4498 H   0  0  0  0  0  0  0  0  0  0  0  0
    0.1117    0.5249    1.3373 H   0  0  0  0  0  0  0  0  0  0  0  0
    0.6389   -0.4915   -1.8380 H   0  0  0  0  0  0  0  0  0  0  0  0
    1.4824    0.9838   -2.2468 H   0  0  0  0  0  0  0  0  0  0  0  0
   -2.0731    1.0807    1.8940 H   0  0  0  0  0  0  0  0  0  0  0  0
   -2.4961    1.3490    0.3977 H   0  0  0  0  0  0  0  0  0  0  0  0
    1.2030   -1.6156    0.1515 H   0  0  0  0  0  0  0  0  0  0  0  0
    2.7854   -1.3980    0.8108 H   0  0  0  0  0  0  0  0  0  0  0  0
  1  9  2  0  0  0  0
  2 10  1  0  0  0  0
  3 10  2  0  0  0  0
  4  7  1  0  0  0  0
  4 16  1  0  0  0  0
  4 17  1  0  0  0  0
  5  9  1  0  0  0  0
  5 18  1  0  0  0  0
  5 19  1  0  0  0  0
  6  7  1  0  0  0  0
  6  8  1  0  0  0  0
  6 11  1  0  0  0  0
  6 12  1  0  0  0  0
  7 10  1  0  0  0  0
  7 13  1  1  0  0  0
  8  9  1  0  0  0  0
  8 14  1  0  0  0  0
  8 15  1  0  0  0  0
M  CHG  1   2  -1
M  END
