
 OpenBabel07222415313D

 18 17  0  0  1  0  0  0  0  0999 V2000
    2.7864    1.0969    0.7157 O   0  5  0  0  0  0  0  0  0  0  0  0
    2.6554   -0.1787   -1.2006 O   0  0  0  0  0  0  0  0  0  0  0  0
   -1.4938   -1.7447   -0.6678 O   0  5  0  0  0  0  0  0  0  0  0  0
   -3.1375   -0.1731   -0.8850 O   0  0  0  0  0  0  0  0  0  0  0  0
    0.9058   -1.8462   -0.3880 N   0  3  0  0  0  0  0  0  0  0  0  0
    1.2149   -0.7276    0.5640 C   0  0  2  0  0  0  0  0  0  0  0  0
   -0.0562    0.0112    1.0015 C   0  0  0  0  0  0  0  0  0  0  0  0
   -0.9967    0.4930   -0.1105 C   0  0  0  0  0  0  0  0  0  0  0  0
    2.3238    0.1990   -0.0285 C   0  0  0  0  0  0  0  0  0  0  0  0
   -1.9825   -0.5727   -0.5982 C   0  0  0  0  0  0  0  0  0  0  0  0
    1.6537   -1.2155    1.4430 H   0  0  0  0  0  0  0  0  0  0  0  0
    0.2420    0.8881    1.5902 H   0  0  0  0  0  0  0  0  0  0  0  0
   -0.6175   -0.6354    1.6890 H   0  0  0  0  0  0  0  0  0  0  0  0
   -1.5853    1.3330    0.2802 H   0  0  0  0  0  0  0  0  0  0  0  0
   -0.4287    0.8706   -0.9678 H   0  0  0  0  0  0  0  0  0  0  0  0
    1.2987   -1.5007   -1.2851 H   0  0  0  0  0  0  0  0  0  0  0  0
   -0.1233   -1.9881   -0.5415 H   0  0  0  0  0  0  0  0  0  0  0  0
    1.3571   -2.7258   -0.1688 H   0  0  0  0  0  0  0  0  0  0  0  0
  1  9  1  0  0  0  0
  2  9  2  0  0  0  0
  3 10  1  0  0  0  0
  4 10  2  0  0  0  0
  5  6  1  0  0  0  0
  5 16  1  0  0  0  0
  5 17  1  0  0  0  0
  5 18  1  0  0  0  0
  6  7  1  0  0  0  0
  6  9  1  0  0  0  0
  6 11  1  1  0  0  0
  7  8  1  0  0  0  0
  7 12  1  0  0  0  0
  7 13  1  0  0  0  0
  8 10  1  0  0  0  0
  8 14  1  0  0  0  0
  8 15  1  0  0  0  0
M  CHG  3   1  -1   3  -1   5   1
M  END
