
 OpenBabel01292413403D

 16 15  0  0  0  0  0  0  0  0999 V2000
    2.9530    1.2954    0.0292 O   0  0  0  0  0  0  0  0  0  0  0  0
    2.8806   -0.9125   -0.2117 O   0  0  0  0  0  0  0  0  0  0  0  0
   -3.3508    0.4699    0.4403 O   0  5  0  0  0  0  0  0  0  0  0  0
   -1.8672    0.4516   -1.2963 O   0  0  0  0  0  0  0  0  0  0  0  0
    0.0356   -0.9841    0.1822 C   0  0  0  0  0  0  0  0  0  0  0  0
    0.8381    0.2960    0.4148 C   0  0  0  0  0  0  0  0  0  0  0  0
   -1.4146   -0.8516    0.6383 C   0  0  0  0  0  0  0  0  0  0  0  0
    2.2823    0.1229    0.0321 C   0  0  0  0  0  0  0  0  0  0  0  0
   -2.2932    0.1195   -0.1564 C   0  0  0  0  0  0  0  0  0  0  0  0
    0.0797   -1.2631   -0.8779 H   0  0  0  0  0  0  0  0  0  0  0  0
    0.5005   -1.8094    0.7363 H   0  0  0  0  0  0  0  0  0  0  0  0
    0.4270    1.1168   -0.1815 H   0  0  0  0  0  0  0  0  0  0  0  0
    0.8019    0.5763    1.4732 H   0  0  0  0  0  0  0  0  0  0  0  0
   -1.8938   -1.8361    0.5668 H   0  0  0  0  0  0  0  0  0  0  0  0
   -1.4383   -0.5627    1.6965 H   0  0  0  0  0  0  0  0  0  0  0  0
    3.8529    1.0321   -0.2476 H   0  0  0  0  0  0  0  0  0  0  0  0
  1  8  1  0  0  0  0
  1 16  1  0  0  0  0
  2  8  2  0  0  0  0
  3  9  1  0  0  0  0
  4  9  2  0  0  0  0
  5  6  1  0  0  0  0
  5  7  1  0  0  0  0
  5 10  1  0  0  0  0
  5 11  1  0  0  0  0
  6  8  1  0  0  0  0
  6 12  1  0  0  0  0
  6 13  1  0  0  0  0
  7  9  1  0  0  0  0
  7 14  1  0  0  0  0
  7 15  1  0  0  0  0
M  CHG  1   3  -1
M  END
