
 OpenBabel01292413403D

 15 14  0  0  0  0  0  0  0  0999 V2000
    3.3851    0.4541   -0.6058 O   0  5  0  0  0  0  0  0  0  0  0  0
   -3.1078    1.1308   -0.4120 O   0  5  0  0  0  0  0  0  0  0  0  0
    2.3469    0.1377    1.3983 O   0  0  0  0  0  0  0  0  0  0  0  0
   -2.8256   -1.0223    0.2716 O   0  0  0  0  0  0  0  0  0  0  0  0
   -0.0195   -0.9275   -0.0054 C   0  0  0  0  0  0  0  0  0  0  0  0
    1.3994   -0.8209   -0.5737 C   0  0  0  0  0  0  0  0  0  0  0  0
   -0.9054    0.2698   -0.3589 C   0  0  0  0  0  0  0  0  0  0  0  0
    2.4575    0.0237    0.1463 C   0  0  0  0  0  0  0  0  0  0  0  0
   -2.4168    0.1038   -0.1307 C   0  0  0  0  0  0  0  0  0  0  0  0
    0.0070   -1.0552    1.0828 H   0  0  0  0  0  0  0  0  0  0  0  0
   -0.4741   -1.8384   -0.4149 H   0  0  0  0  0  0  0  0  0  0  0  0
    1.8220   -1.8353   -0.5877 H   0  0  0  0  0  0  0  0  0  0  0  0
    1.3469   -0.5031   -1.6228 H   0  0  0  0  0  0  0  0  0  0  0  0
   -0.5685    1.1460    0.2083 H   0  0  0  0  0  0  0  0  0  0  0  0
   -0.7812    0.5091   -1.4229 H   0  0  0  0  0  0  0  0  0  0  0  0
  1  8  1  0  0  0  0
  2  9  1  0  0  0  0
  3  8  2  0  0  0  0
  4  9  2  0  0  0  0
  5  6  1  0  0  0  0
  5  7  1  0  0  0  0
  5 10  1  0  0  0  0
  5 11  1  0  0  0  0
  6  8  1  0  0  0  0
  6 12  1  0  0  0  0
  6 13  1  0  0  0  0
  7  9  1  0  0  0  0
  7 14  1  0  0  0  0
  7 15  1  0  0  0  0
M  CHG  2   1  -1   2  -1
M  END
