
 OpenBabel10172316553D

  8  7  0  0  0  0  0  0  0  0999 V2000
   -1.9030    0.7297   -0.5312 O   0  0  0  0  0  0  0  0  0  0  0  0
    1.4542   -0.2624    0.3055 O   0  5  0  0  0  0  0  0  0  0  0  0
   -0.5660   -0.2699    1.4032 O   0  0  0  0  0  0  0  0  0  0  0  0
   -0.4945    0.5516   -0.8112 C   0  0  0  0  0  0  0  0  0  0  0  0
    0.2159   -0.0578    0.4240 C   0  0  0  0  0  0  0  0  0  0  0  0
   -0.3997   -0.1169   -1.6709 H   0  0  0  0  0  0  0  0  0  0  0  0
   -0.0680    1.5295   -1.0495 H   0  0  0  0  0  0  0  0  0  0  0  0
   -1.9616    0.3909    0.3975 H   0  0  0  0  0  0  0  0  0  0  0  0
  1  4  1  0  0  0  0
  1  8  1  0  0  0  0
  2  5  1  0  0  0  0
  3  5  2  0  0  0  0
  4  5  1  0  0  0  0
  4  6  1  0  0  0  0
  4  7  1  0  0  0  0
M  CHG  1   2  -1
M  END
