
 OpenBabel11272310023D

  5  4  0  0  0  0  0  0  0  0999 V2000
    1.5148   -0.6340    0.2274 O   0  0  0  0  0  0  0  0  0  0  0  0
   -0.5950   -1.2546    0.0396 O   0  5  0  0  0  0  0  0  0  0  0  0
    0.1162    0.9070   -0.1776 O   0  0  0  0  0  0  0  0  0  0  0  0
    0.2430   -0.3260    0.0162 C   0  0  0  0  0  0  0  0  0  0  0  0
    1.7796    0.3032    0.1276 H   0  0  0  0  0  0  0  0  0  0  0  0
  1  4  1  0  0  0  0
  1  5  1  0  0  0  0
  2  4  1  0  0  0  0
  3  4  2  0  0  0  0
M  CHG  1   2  -1
M  END
