
 OpenBabel02032513023D

 34 34  0  0  0  0  0  0  0  0999 V2000
    1.9089    0.6774   -0.2327 N   0  0  0  0  0  0  0  0  0  0  0  0
    2.9950   -1.2572   -0.1473 N   0  3  0  0  0  0  0  0  0  0  0  0
   -1.0901    0.7258   -0.4208 C   0  0  0  0  0  0  0  0  0  0  0  0
   -0.2147    1.9494   -0.1148 C   0  0  0  0  0  0  0  0  0  0  0  0
   -2.4814    0.8755    0.2055 C   0  0  0  0  0  0  0  0  0  0  0  0
    1.1767    1.8330   -0.7517 C   0  0  0  0  0  0  0  0  0  0  0  0
   -3.3565   -0.3458   -0.1003 C   0  0  0  0  0  0  0  0  0  0  0  0
   -4.7473   -0.1962    0.5266 C   0  0  0  0  0  0  0  0  0  0  0  0
    2.3606   -0.3749   -0.9434 C   0  0  0  0  0  0  0  0  0  0  0  0
    2.2722    0.4536    1.0474 C   0  0  0  0  0  0  0  0  0  0  0  0
   -5.6213   -1.4100    0.2245 C   0  0  0  0  0  0  0  0  0  0  0  0
    2.9460   -0.7498    1.0997 C   0  0  0  0  0  0  0  0  0  0  0  0
    3.6151   -2.5139   -0.5465 C   0  0  0  0  0  0  0  0  0  0  0  0
   -1.1929    0.6159   -1.5229 H   0  0  0  0  0  0  0  0  0  0  0  0
   -0.6065   -0.1892   -0.0141 H   0  0  0  0  0  0  0  0  0  0  0  0
   -0.1096    2.0715    0.9852 H   0  0  0  0  0  0  0  0  0  0  0  0
   -0.7080    2.8600   -0.5195 H   0  0  0  0  0  0  0  0  0  0  0  0
   -2.9705    1.7884   -0.2005 H   0  0  0  0  0  0  0  0  0  0  0  0
   -2.3771    0.9853    1.3077 H   0  0  0  0  0  0  0  0  0  0  0  0
    1.0645    1.7500   -1.8555 H   0  0  0  0  0  0  0  0  0  0  0  0
    1.7574    2.7551   -0.5345 H   0  0  0  0  0  0  0  0  0  0  0  0
   -2.8674   -1.2588    0.3058 H   0  0  0  0  0  0  0  0  0  0  0  0
   -3.4607   -0.4559   -1.2025 H   0  0  0  0  0  0  0  0  0  0  0  0
   -5.2439    0.7128    0.1222 H   0  0  0  0  0  0  0  0  0  0  0  0
   -4.6508   -0.0893    1.6292 H   0  0  0  0  0  0  0  0  0  0  0  0
    2.2296   -0.4957   -2.0118 H   0  0  0  0  0  0  0  0  0  0  0  0
    2.0641    1.1134    1.8796 H   0  0  0  0  0  0  0  0  0  0  0  0
   -5.1586   -2.3315    0.6378 H   0  0  0  0  0  0  0  0  0  0  0  0
   -5.7528   -1.5277   -0.8723 H   0  0  0  0  0  0  0  0  0  0  0  0
   -6.6204   -1.2744    0.6898 H   0  0  0  0  0  0  0  0  0  0  0  0
    3.3683   -1.2176    1.9797 H   0  0  0  0  0  0  0  0  0  0  0  0
    4.6968   -2.4921   -0.2975 H   0  0  0  0  0  0  0  0  0  0  0  0
    3.1321   -3.3561   -0.0077 H   0  0  0  0  0  0  0  0  0  0  0  0
    3.5016   -2.6753   -1.6398 H   0  0  0  0  0  0  0  0  0  0  0  0
  1  6  1  0  0  0  0
  1  9  1  0  0  0  0
  1 10  1  0  0  0  0
  2  9  2  0  0  0  0
  2 12  1  0  0  0  0
  2 13  1  0  0  0  0
  3  4  1  0  0  0  0
  3  5  1  0  0  0  0
  3 14  1  0  0  0  0
  3 15  1  0  0  0  0
  4  6  1  0  0  0  0
  4 16  1  0  0  0  0
  4 17  1  0  0  0  0
  5  7  1  0  0  0  0
  5 18  1  0  0  0  0
  5 19  1  0  0  0  0
  6 20  1  0  0  0  0
  6 21  1  0  0  0  0
  7  8  1  0  0  0  0
  7 22  1  0  0  0  0
  7 23  1  0  0  0  0
  8 11  1  0  0  0  0
  8 24  1  0  0  0  0
  8 25  1  0  0  0  0
  9 26  1  0  0  0  0
 10 12  2  0  0  0  0
 10 27  1  0  0  0  0
 11 28  1  0  0  0  0
 11 29  1  0  0  0  0
 11 30  1  0  0  0  0
 12 31  1  0  0  0  0
 13 32  1  0  0  0  0
 13 33  1  0  0  0  0
 13 34  1  0  0  0  0
M  CHG  1   2   1
M  END
