
 OpenBabel11072217283D

 30 30  0  0  0  0  0  0  0  0999 V2000
   -1.2573   -1.4237   -0.0167 C   0  0  0  0  0  0  0  0  0  0  0  0
    0.1783   -0.9546    0.2012 C   0  0  0  0  0  0  0  0  0  0  0  0
   -1.5752   -1.2215   -1.0618 H   0  0  0  0  0  0  0  0  0  0  0  0
   -1.9447   -0.9005    0.6817 H   0  0  0  0  0  0  0  0  0  0  0  0
   -1.3244   -2.5161    0.1702 H   0  0  0  0  0  0  0  0  0  0  0  0
    0.3121    0.5521   -0.0479 C   0  0  0  0  0  0  0  0  0  0  0  0
    0.8461   -1.5091   -0.4938 H   0  0  0  0  0  0  0  0  0  0  0  0
    0.4773   -1.1887    1.2463 H   0  0  0  0  0  0  0  0  0  0  0  0
    1.7558    1.0195    0.1721 C   0  0  0  0  0  0  0  0  0  0  0  0
   -0.3611    1.1002    0.6479 H   0  0  0  0  0  0  0  0  0  0  0  0
    0.0079    0.7794   -1.0936 H   0  0  0  0  0  0  0  0  0  0  0  0
    1.8906    2.5266   -0.0771 C   0  0  0  0  0  0  0  0  0  0  0  0
    2.4292    0.4716   -0.5236 H   0  0  0  0  0  0  0  0  0  0  0  0
    2.0592    0.7912    1.2178 H   0  0  0  0  0  0  0  0  0  0  0  0
    3.3353    2.9962    0.1513 C   0  0  0  0  0  0  0  0  0  0  0  0
    1.2199    3.0775    0.6183 H   0  0  0  0  0  0  0  0  0  0  0  0
    1.5798    2.7476   -1.1204 H   0  0  0  0  0  0  0  0  0  0  0  0
    3.4662    4.4453   -0.0712 N   0  0  0  0  0  0  0  0  0  0  0  0
    4.0285    2.4568   -0.5310 H   0  0  0  0  0  0  0  0  0  0  0  0
    3.6199    2.7335    1.1950 H   0  0  0  0  0  0  0  0  0  0  0  0
    3.8225    5.2656    0.9659 C   0  0  0  0  0  0  0  0  0  0  0  0
    3.9557    6.6427    0.7709 C   0  0  0  0  0  0  0  0  0  0  0  0
    3.7258    7.1808   -0.4936 C   0  0  0  0  0  0  0  0  0  0  0  0
    3.3686    6.3409   -1.5463 C   0  0  0  0  0  0  0  0  0  0  0  0
    3.2436    4.9685   -1.3174 C   0  0  0  0  0  0  0  0  0  0  0  0
    4.0049    4.8624    1.9549 H   0  0  0  0  0  0  0  0  0  0  0  0
    2.9714    4.3265   -2.1462 H   0  0  0  0  0  0  0  0  0  0  0  0
    3.1911    6.7484   -2.5332 H   0  0  0  0  0  0  0  0  0  0  0  0
    4.2355    7.2863    1.5949 H   0  0  0  0  0  0  0  0  0  0  0  0
    3.8263    8.2459   -0.6577 H   0  0  0  0  0  0  0  0  0  0  0  0
  1  2  1  0  0  0  0
  1  3  1  0  0  0  0
  1  4  1  0  0  0  0
  1  5  1  0  0  0  0
  2  6  1  0  0  0  0
  2  7  1  0  0  0  0
  2  8  1  0  0  0  0
  6  9  1  0  0  0  0
  6 10  1  0  0  0  0
  6 11  1  0  0  0  0
  9 12  1  0  0  0  0
  9 13  1  0  0  0  0
  9 14  1  0  0  0  0
 12 15  1  0  0  0  0
 12 16  1  0  0  0  0
 12 17  1  0  0  0  0
 15 18  1  0  0  0  0
 15 19  1  0  0  0  0
 15 20  1  0  0  0  0
 18 21  2  0  0  0  0
 18 25  1  0  0  0  0
 21 22  1  0  0  0  0
 21 26  1  0  0  0  0
 22 23  2  0  0  0  0
 22 29  1  0  0  0  0
 23 24  1  0  0  0  0
 23 30  1  0  0  0  0
 24 28  1  0  0  0  0
 25 24  2  0  0  0  0
 25 27  1  0  0  0  0
M  END
