
 OpenBabel01292413473D

 20 20  0  0  1  0  0  0  0  0999 V2000
    0.0951   -1.0316    0.9282 O   0  0  0  0  0  0  0  0  0  0  0  0
   -1.6581   -0.3210   -1.3096 O   0  0  0  0  0  0  0  0  0  0  0  0
    0.6021    2.2823   -0.4076 O   0  5  0  0  0  0  0  0  0  0  0  0
   -4.0531   -0.4715    0.0909 O   0  0  0  0  0  0  0  0  0  0  0  0
    2.8233    0.3950   -0.9675 O   0  0  0  0  0  0  0  0  0  0  0  0
    2.0064   -2.1513    0.2725 O   0  0  0  0  0  0  0  0  0  0  0  0
   -0.4098    0.3064    0.7331 C   0  0  2  0  0  0  0  0  0  0  0  0
   -1.7618    0.2807   -0.0026 C   0  0  2  0  0  0  0  0  0  0  0  0
    0.6751    0.9701   -0.0312 C   0  0  0  0  0  0  0  0  0  0  0  0
   -2.8027   -0.5253    0.7803 C   0  0  0  0  0  0  0  0  0  0  0  0
    1.6716    0.1326   -0.2851 C   0  0  0  0  0  0  0  0  0  0  0  0
    1.3044   -1.1567    0.3144 C   0  0  0  0  0  0  0  0  0  0  0  0
   -0.5219    0.7684    1.7208 H   0  0  0  0  0  0  0  0  0  0  0  0
   -2.1373    1.2998   -0.1568 H   0  0  0  0  0  0  0  0  0  0  0  0
   -2.5221   -1.5805    0.8589 H   0  0  0  0  0  0  0  0  0  0  0  0
   -2.9491   -0.1189    1.7853 H   0  0  0  0  0  0  0  0  0  0  0  0
   -1.1885    0.3181   -1.8767 H   0  0  0  0  0  0  0  0  0  0  0  0
   -3.8457   -0.7397   -0.8264 H   0  0  0  0  0  0  0  0  0  0  0  0
    3.3255   -0.4471   -0.9635 H   0  0  0  0  0  0  0  0  0  0  0  0
    1.4463    2.4931   -0.8582 H   0  0  0  0  0  0  0  0  0  0  0  0
  1  7  1  0  0  0  0
  1 12  1  0  0  0  0
  2  8  1  0  0  0  0
  2 17  1  0  0  0  0
  3  9  1  0  0  0  0
  4 10  1  0  0  0  0
  4 18  1  0  0  0  0
  5 11  1  0  0  0  0
  5 19  1  0  0  0  0
  6 12  2  0  0  0  0
  7  8  1  0  0  0  0
  7  9  1  0  0  0  0
  7 13  1  1  0  0  0
  8 10  1  0  0  0  0
  8 14  1  6  0  0  0
  9 11  2  0  0  0  0
 10 15  1  0  0  0  0
 10 16  1  0  0  0  0
 11 12  1  0  0  0  0
 20  3  1  0  0  0  0
M  CHG  1   3  -1
M  END
