
 OpenBabel06142411303D

 47 46  0  0  0  0  0  0  0  0999 V2000
    8.3480    8.9627   -0.1436 H   0  0  0  0  0  0  0  0  0  0  0  0
    0.0645   -3.1775    0.3143 O   0  5  0  0  0  0  0  0  0  0  0  0
    1.3279   -3.1013    0.2431 C   0  0  0  0  0  0  0  0  0  0  0  0
    2.1779   -4.0390    0.2215 O   0  0  0  0  0  0  0  0  0  0  0  0
    1.8750   -1.6520    0.1006 C   0  0  0  0  0  0  0  0  0  0  0  0
    3.3075   -1.4962   -0.2521 N   0  0  0  0  0  0  0  0  0  0  0  0
    3.7009   -2.0975   -1.5157 C   0  0  0  0  0  0  0  0  0  0  0  0
    3.8460   -0.7395    1.8611 O   0  0  0  0  0  0  0  0  0  0  0  0
    4.1983   -1.1942    0.7680 C   0  0  0  0  0  0  0  0  0  0  0  0
    5.6871   -1.3673    0.5010 C   0  0  0  0  0  0  0  0  0  0  0  0
    6.4099   -0.0228    0.3990 C   0  0  0  0  0  0  0  0  0  0  0  0
    6.0940    0.7249   -0.8991 C   0  0  0  0  0  0  0  0  0  0  0  0
    6.7599    2.1031   -0.9886 C   0  0  0  0  0  0  0  0  0  0  0  0
    8.2778    2.0345   -1.1549 C   0  0  0  0  0  0  0  0  0  0  0  0
    8.9733    3.4019   -1.1549 C   0  0  0  0  0  0  0  0  0  0  0  0
    8.6040    4.3147   -2.3296 C   0  0  0  0  0  0  0  0  0  0  0  0
    7.4957    5.3379   -2.0517 C   0  0  0  0  0  0  0  0  0  0  0  0
    7.7782    6.3572   -0.9419 C   0  0  0  0  0  0  0  0  0  0  0  0
    9.0428    7.1841   -1.1738 C   0  0  0  0  0  0  0  0  0  0  0  0
    9.1961    8.2709   -0.1205 C   0  0  0  0  0  0  0  0  0  0  0  0
    1.3032   -1.1445   -0.6861 H   0  0  0  0  0  0  0  0  0  0  0  0
    1.6632   -1.1291    1.0396 H   0  0  0  0  0  0  0  0  0  0  0  0
    4.5173   -1.5253   -1.9623 H   0  0  0  0  0  0  0  0  0  0  0  0
    4.0364   -3.1244   -1.3486 H   0  0  0  0  0  0  0  0  0  0  0  0
    2.8612   -2.0863   -2.2169 H   0  0  0  0  0  0  0  0  0  0  0  0
    6.0869   -1.9210    1.3606 H   0  0  0  0  0  0  0  0  0  0  0  0
    5.9018   -1.9910   -0.3684 H   0  0  0  0  0  0  0  0  0  0  0  0
    6.1494    0.6086    1.2571 H   0  0  0  0  0  0  0  0  0  0  0  0
    7.4863   -0.2167    0.4602 H   0  0  0  0  0  0  0  0  0  0  0  0
    6.3936    0.1168   -1.7610 H   0  0  0  0  0  0  0  0  0  0  0  0
    5.0103    0.8733   -0.9752 H   0  0  0  0  0  0  0  0  0  0  0  0
    6.3289    2.6138   -1.8564 H   0  0  0  0  0  0  0  0  0  0  0  0
    6.5040    2.6961   -0.1027 H   0  0  0  0  0  0  0  0  0  0  0  0
    8.7138    1.4487   -0.3383 H   0  0  0  0  0  0  0  0  0  0  0  0
    8.5201    1.5029   -2.0833 H   0  0  0  0  0  0  0  0  0  0  0  0
    8.8158    3.8964   -0.1918 H   0  0  0  0  0  0  0  0  0  0  0  0
   10.0519    3.2054   -1.2173 H   0  0  0  0  0  0  0  0  0  0  0  0
    9.5041    4.8573   -2.6428 H   0  0  0  0  0  0  0  0  0  0  0  0
    8.3152    3.7059   -3.1953 H   0  0  0  0  0  0  0  0  0  0  0  0
    7.3035    5.8869   -2.9826 H   0  0  0  0  0  0  0  0  0  0  0  0
    6.5615    4.8213   -1.8106 H   0  0  0  0  0  0  0  0  0  0  0  0
    6.9156    7.0333   -0.8806 H   0  0  0  0  0  0  0  0  0  0  0  0
    7.8371    5.8539    0.0294 H   0  0  0  0  0  0  0  0  0  0  0  0
    9.9286    6.5407   -1.1415 H   0  0  0  0  0  0  0  0  0  0  0  0
    9.0092    7.6478   -2.1663 H   0  0  0  0  0  0  0  0  0  0  0  0
    9.2602    7.8381    0.8829 H   0  0  0  0  0  0  0  0  0  0  0  0
   10.1089    8.8473   -0.3011 H   0  0  0  0  0  0  0  0  0  0  0  0
  2  3  1  0  0  0  0
  3  4  2  0  0  0  0
  3  5  1  0  0  0  0
  5  6  1  0  0  0  0
  5 21  1  0  0  0  0
  5 22  1  0  0  0  0
  6  7  1  0  0  0  0
  6  9  1  0  0  0  0
  7 23  1  0  0  0  0
  7 24  1  0  0  0  0
  7 25  1  0  0  0  0
  8  9  2  0  0  0  0
  9 10  1  0  0  0  0
 10 11  1  0  0  0  0
 10 26  1  0  0  0  0
 10 27  1  0  0  0  0
 11 12  1  0  0  0  0
 11 28  1  0  0  0  0
 11 29  1  0  0  0  0
 12 13  1  0  0  0  0
 12 30  1  0  0  0  0
 12 31  1  0  0  0  0
 13 14  1  0  0  0  0
 13 32  1  0  0  0  0
 13 33  1  0  0  0  0
 14 15  1  0  0  0  0
 14 34  1  0  0  0  0
 14 35  1  0  0  0  0
 15 16  1  0  0  0  0
 15 36  1  0  0  0  0
 15 37  1  0  0  0  0
 16 17  1  0  0  0  0
 16 38  1  0  0  0  0
 16 39  1  0  0  0  0
 17 18  1  0  0  0  0
 17 40  1  0  0  0  0
 17 41  1  0  0  0  0
 18 19  1  0  0  0  0
 18 42  1  0  0  0  0
 18 43  1  0  0  0  0
 19 20  1  0  0  0  0
 19 44  1  0  0  0  0
 19 45  1  0  0  0  0
 20 46  1  0  0  0  0
 20 47  1  0  0  0  0
 20  1  1  0  0  0  0
M  CHG  1   2  -1
M  END
