
 OpenBabel02032513083D

 10  9  0  0  0  0  0  0  0  0999 V2000
    1.0557    0.1215   -0.1603 C   0  0  0  0  0  0  0  0  0  0  0  0
    0.4634    0.9189   -1.3033 C   0  0  0  0  0  0  0  0  0  0  0  0
    1.1671    1.4896   -2.1213 O   0  0  0  0  0  0  0  0  0  0  0  0
   -0.8777    1.0054   -1.4272 O   0  0  0  0  0  0  0  0  0  0  0  0
    2.5647    0.0688   -0.0848 C   0  0  0  0  0  0  0  0  0  0  0  0
    3.0888   -0.5619    0.8191 O   0  0  0  0  0  0  0  0  0  0  0  0
    3.3503    0.6952   -0.9827 O   0  0  0  0  0  0  0  0  0  0  0  0
    0.6798   -0.9207   -0.2421 H   0  0  0  0  0  0  0  0  0  0  0  0
    0.6798    0.5579    0.7896 H   0  0  0  0  0  0  0  0  0  0  0  0
   -1.4734    0.5692   -0.8020 H   0  0  0  0  0  0  0  0  0  0  0  0
  1  2  1  0  0  0  0
  1  5  1  0  0  0  0
  1  8  1  0  0  0  0
  1  9  1  0  0  0  0
  2  3  2  0  0  0  0
  2  4  1  0  0  0  0
  4 10  1  0  0  0  0
  5  6  2  0  0  0  0
  5  7  1  0  0  0  0
M  END
