
 OpenBabel11072202003D

  9  8  0  0  0  0  0  0  0  0999 V2000
   -1.1476   -1.4629    0.8444 C   0  0  0  0  0  0  0  0  0  0  0  0
   -1.3876   -2.5380   -0.0238 O   0  0  0  0  0  0  0  0  0  0  0  0
   -1.5935   -1.6504    1.8455 H   0  0  0  0  0  0  0  0  0  0  0  0
   -0.0607   -1.2397    0.9148 H   0  0  0  0  0  0  0  0  0  0  0  0
   -1.6415   -0.5605    0.4294 H   0  0  0  0  0  0  0  0  0  0  0  0
   -0.6146   -3.9287    0.6486 S   0  0  0  0  0  0  0  0  0  0  0  0
    0.9124   -3.7696    0.5855 O   0  0  0  0  0  0  0  0  0  0  0  0
   -0.8986   -5.1240   -0.2727 O   0  0  0  0  0  0  0  0  0  0  0  0
   -1.0976   -4.3569    2.2399 O   0  0  0  0  0  0  0  0  0  0  0  0
  1  2  1  0  0  0  0
  1  3  1  0  0  0  0
  1  4  1  0  0  0  0
  1  5  1  0  0  0  0
  2  6  1  0  0  0  0
  6  7  2  0  0  0  0
  6  8  2  0  0  0  0
  6  9  1  0  0  0  0
M  END
