
 OpenBabel11082217493D

 28 28  0  0  0  0  0  0  0  0999 V2000
   -1.9321   -1.1969   -2.2929 C   0  0  0  0  0  0  0  0  0  0  0  0
   -0.5439   -1.4035   -2.1614 O   0  0  0  0  0  0  0  0  0  0  0  0
   -2.2338   -0.2038   -1.8919 H   0  0  0  0  0  0  0  0  0  0  0  0
   -2.5117   -2.0213   -1.8212 H   0  0  0  0  0  0  0  0  0  0  0  0
   -2.1842   -1.2006   -3.3732 H   0  0  0  0  0  0  0  0  0  0  0  0
   -0.1967   -1.4092   -0.7928 C   0  0  0  0  0  0  0  0  0  0  0  0
    1.3274   -1.6128   -0.6768 C   0  0  0  0  0  0  0  0  0  0  0  0
   -0.7195   -2.2449   -0.2803 H   0  0  0  0  0  0  0  0  0  0  0  0
   -0.4694   -0.4372   -0.3252 H   0  0  0  0  0  0  0  0  0  0  0  0
    1.8654   -1.5889    0.7185 N   0  0  0  0  0  0  0  0  0  0  0  0
    1.8204   -0.8141   -1.2782 H   0  0  0  0  0  0  0  0  0  0  0  0
    1.5795   -2.5838   -1.1617 H   0  0  0  0  0  0  0  0  0  0  0  0
    1.2958   -2.6921    1.5332 C   0  0  0  0  0  0  0  0  0  0  0  0
    0.2019   -2.5766    1.6761 H   0  0  0  0  0  0  0  0  0  0  0  0
    1.7343   -2.7041    2.5563 H   0  0  0  0  0  0  0  0  0  0  0  0
    1.4944   -3.6782    1.0578 H   0  0  0  0  0  0  0  0  0  0  0  0
    1.6301   -0.2712    1.3795 C   0  0  0  0  0  0  0  0  0  0  0  0
    2.9407    0.1059    2.0511 C   0  0  0  0  0  0  0  0  0  0  0  0
    0.7578   -0.2487    2.0704 H   0  0  0  0  0  0  0  0  0  0  0  0
    1.4528    0.5206    0.6130 H   0  0  0  0  0  0  0  0  0  0  0  0
    3.9122   -0.3369    0.9830 C   0  0  0  0  0  0  0  0  0  0  0  0
    3.0859   -0.5167    2.9635 H   0  0  0  0  0  0  0  0  0  0  0  0
    3.0139    1.1788    2.3293 H   0  0  0  0  0  0  0  0  0  0  0  0
    3.3558   -1.7189    0.6790 C   0  0  0  0  0  0  0  0  0  0  0  0
    4.9792   -0.3358    1.2921 H   0  0  0  0  0  0  0  0  0  0  0  0
    3.7950    0.3161    0.0878 H   0  0  0  0  0  0  0  0  0  0  0  0
    3.7203   -2.3752    1.5059 H   0  0  0  0  0  0  0  0  0  0  0  0
    3.7644   -2.1541   -0.2608 H   0  0  0  0  0  0  0  0  0  0  0  0
  1  2  1  0  0  0  0
  1  3  1  0  0  0  0
  1  4  1  0  0  0  0
  1  5  1  0  0  0  0
  2  6  1  0  0  0  0
  6  7  1  0  0  0  0
  6  8  1  0  0  0  0
  6  9  1  0  0  0  0
  7 10  1  0  0  0  0
  7 11  1  0  0  0  0
  7 12  1  0  0  0  0
 10 13  1  0  0  0  0
 10 17  1  0  0  0  0
 13 14  1  0  0  0  0
 13 15  1  0  0  0  0
 13 16  1  0  0  0  0
 17 18  1  0  0  0  0
 17 19  1  0  0  0  0
 17 20  1  0  0  0  0
 18 21  1  0  0  0  0
 18 22  1  0  0  0  0
 18 23  1  0  0  0  0
 21 24  1  0  0  0  0
 21 25  1  0  0  0  0
 21 26  1  0  0  0  0
 24 10  1  0  0  0  0
 24 27  1  0  0  0  0
 24 28  1  0  0  0  0
M  END
