
 OpenBabel06302011333D

 31 30  0  0  0  0  0  0  0  0999 V2000
   -0.8354   -0.2614   -1.1166 C   0  0  1  0  0  0  0  0  0  0  0  0
    0.6077    0.3075   -0.9458 C   0  0  1  0  0  0  0  0  0  0  0  0
   -0.8607   -1.2722   -2.2426 C   0  0  0  0  0  0  0  0  0  0  0  0
   -1.3456   -0.8620    0.1173 N   0  3  0  0  0  0  0  0  0  0  0  0
    0.6935    1.4816    0.0729 C   0  0  1  0  0  0  0  0  0  0  0  0
    1.4753   -0.7293   -0.5593 O   0  0  0  0  0  0  0  0  0  0  0  0
    2.0722    2.1887    0.1463 C   0  0  1  0  0  0  0  0  0  0  0  0
   -0.2556    2.4609   -0.2763 O   0  0  0  0  0  0  0  0  0  0  0  0
    3.2211    1.3093    0.6690 C   0  0  0  0  0  0  0  0  0  0  0  0
    2.4048    2.7114   -1.1157 O   0  0  0  0  0  0  0  0  0  0  0  0
    4.3889    2.0716    0.8164 O   0  0  0  0  0  0  0  0  0  0  0  0
   -0.2258   -2.3129   -2.1713 O   0  0  0  0  0  0  0  0  0  0  0  0
   -2.6905   -1.3527    0.1329 C   0  0  0  0  0  0  0  0  0  0  0  0
   -3.4416   -1.1541   -0.8121 O   0  0  0  0  0  0  0  0  0  0  0  0
   -3.2009   -2.1065    1.3265 C   0  0  0  0  0  0  0  0  0  0  0  0
   -1.5016    0.5785   -1.4151 H   0  0  0  0  0  0  0  0  0  0  0  0
    0.9098    0.7284   -1.9361 H   0  0  0  0  0  0  0  0  0  0  0  0
   -1.4643   -1.0783   -3.1234 H   0  0  0  0  0  0  0  0  0  0  0  0
   -1.2884   -0.2187    0.9186 H   0  0  0  0  0  0  0  0  0  0  0  0
   -0.7243   -1.5918    0.4994 H   0  0  0  0  0  0  0  0  0  0  0  0
    0.4830    1.0990    1.0994 H   0  0  0  0  0  0  0  0  0  0  0  0
    1.9882   -1.0058   -1.3633 H   0  0  0  0  0  0  0  0  0  0  0  0
    1.9384    3.0209    0.8798 H   0  0  0  0  0  0  0  0  0  0  0  0
   -1.0422    2.3434    0.3183 H   0  0  0  0  0  0  0  0  0  0  0  0
    3.4507    0.4903   -0.0381 H   0  0  0  0  0  0  0  0  0  0  0  0
    2.9471    0.8445    1.6438 H   0  0  0  0  0  0  0  0  0  0  0  0
    2.9165    3.5483   -0.9619 H   0  0  0  0  0  0  0  0  0  0  0  0
    4.2918    2.5834    1.6616 H   0  0  0  0  0  0  0  0  0  0  0  0
   -2.5883   -3.0191    1.4807 H   0  0  0  0  0  0  0  0  0  0  0  0
   -4.2601   -2.4077    1.1794 H   0  0  0  0  0  0  0  0  0  0  0  0
   -3.1337   -1.4645    2.2294 H   0  0  0  0  0  0  0  0  0  0  0  0
  1  2  1  0  0  0  0
  1  3  1  0  0  0  0
  1  4  1  0  0  0  0
  1 16  1  6  0  0  0
  2  5  1  0  0  0  0
  2  6  1  0  0  0  0
  2 17  1  6  0  0  0
  3 12  2  0  0  0  0
  3 18  1  0  0  0  0
  4 13  1  0  0  0  0
  4 19  1  0  0  0  0
  4 20  1  0  0  0  0
  5  7  1  0  0  0  0
  5  8  1  0  0  0  0
  5 21  1  1  0  0  0
  6 22  1  0  0  0  0
  7  9  1  0  0  0  0
  7 10  1  0  0  0  0
  7 23  1  1  0  0  0
  8 24  1  0  0  0  0
  9 11  1  0  0  0  0
  9 25  1  0  0  0  0
  9 26  1  0  0  0  0
 10 27  1  0  0  0  0
 11 28  1  0  0  0  0
 13 14  2  0  0  0  0
 13 15  1  0  0  0  0
 15 29  1  0  0  0  0
 15 30  1  0  0  0  0
 15 31  1  0  0  0  0
M  CHG  1   4   1
M  END
