
 OpenBabel06142411373D

 31 30  0  0  0  0  0  0  0  0999 V2000
   -5.4037    2.9148   -0.0000 O   0  0  0  0  0  0  0  0  0  0  0  0
   -3.3728    3.9583   -0.0000 O   0  0  0  0  0  0  0  0  0  0  0  0
    2.2791   -1.3355   -0.0000 C   0  0  0  0  0  0  0  0  0  0  0  0
    0.7308   -1.2269    0.0000 C   0  0  0  0  0  0  0  0  0  0  0  0
    0.1622    0.1976   -0.0000 C   0  0  0  0  0  0  0  0  0  0  0  0
   -1.3696    0.1780    0.0000 C   0  0  0  0  0  0  0  0  0  0  0  0
    2.6550   -2.8305   -0.0000 C   0  0  0  0  0  0  0  0  0  0  0  0
    2.8832   -0.6814    1.2536 C   0  0  0  0  0  0  0  0  0  0  0  0
    2.8832   -0.6814   -1.2536 C   0  0  0  0  0  0  0  0  0  0  0  0
   -1.9443    1.5958   -0.0000 C   0  0  0  0  0  0  0  0  0  0  0  0
   -3.4696    1.5783    0.0000 C   0  0  0  0  0  0  0  0  0  0  0  0
   -4.1391    2.9564   -0.0000 C   0  0  0  0  0  0  0  0  0  0  0  0
    0.3376   -1.7578   -0.8777 H   0  0  0  0  0  0  0  0  0  0  0  0
    0.3376   -1.7578    0.8777 H   0  0  0  0  0  0  0  0  0  0  0  0
    0.5104    0.7437   -0.8832 H   0  0  0  0  0  0  0  0  0  0  0  0
    0.5104    0.7437    0.8832 H   0  0  0  0  0  0  0  0  0  0  0  0
   -1.7299   -0.3641   -0.8827 H   0  0  0  0  0  0  0  0  0  0  0  0
   -1.7299   -0.3641    0.8827 H   0  0  0  0  0  0  0  0  0  0  0  0
    2.2565   -3.3388   -0.8853 H   0  0  0  0  0  0  0  0  0  0  0  0
    2.2565   -3.3388    0.8853 H   0  0  0  0  0  0  0  0  0  0  0  0
    3.7424   -2.9675   -0.0000 H   0  0  0  0  0  0  0  0  0  0  0  0
    2.4375   -1.0913    2.1667 H   0  0  0  0  0  0  0  0  0  0  0  0
    3.9645   -0.8542    1.3054 H   0  0  0  0  0  0  0  0  0  0  0  0
    2.7300    0.4026    1.2603 H   0  0  0  0  0  0  0  0  0  0  0  0
    3.9645   -0.8542   -1.3054 H   0  0  0  0  0  0  0  0  0  0  0  0
    2.4375   -1.0913   -2.1667 H   0  0  0  0  0  0  0  0  0  0  0  0
    2.7300    0.4026   -1.2603 H   0  0  0  0  0  0  0  0  0  0  0  0
   -1.5812    2.1390    0.8812 H   0  0  0  0  0  0  0  0  0  0  0  0
   -1.5812    2.1390   -0.8812 H   0  0  0  0  0  0  0  0  0  0  0  0
   -3.8287    1.0359    0.8836 H   0  0  0  0  0  0  0  0  0  0  0  0
   -3.8287    1.0359   -0.8836 H   0  0  0  0  0  0  0  0  0  0  0  0
  1 12  1  0  0  0  0
  2 12  2  0  0  0  0
  3  4  1  0  0  0  0
  3  7  1  0  0  0  0
  3  8  1  0  0  0  0
  3  9  1  0  0  0  0
  4  5  1  0  0  0  0
  4 13  1  0  0  0  0
  4 14  1  0  0  0  0
  5  6  1  0  0  0  0
  5 15  1  0  0  0  0
  5 16  1  0  0  0  0
  6 10  1  0  0  0  0
  6 17  1  0  0  0  0
  6 18  1  0  0  0  0
  7 19  1  0  0  0  0
  7 20  1  0  0  0  0
  7 21  1  0  0  0  0
  8 22  1  0  0  0  0
  8 23  1  0  0  0  0
  8 24  1  0  0  0  0
  9 25  1  0  0  0  0
  9 26  1  0  0  0  0
  9 27  1  0  0  0  0
 10 11  1  0  0  0  0
 10 28  1  0  0  0  0
 10 29  1  0  0  0  0
 11 31  1  0  0  0  0
 11 12  1  0  0  0  0
 11 30  1  0  0  0  0
M  END
