
 OpenBabel11082218133D

 20 20  0  0  0  0  0  0  0  0999 V2000
   -3.6071    1.0264    0.7523 C   0  0  0  0  0  0  0  0  0  0  0  0
   -2.3810    0.4466    0.2194 N   0  0  0  0  0  0  0  0  0  0  0  0
   -4.3005    1.2987   -0.0719 H   0  0  0  0  0  0  0  0  0  0  0  0
   -3.3655    1.9403    1.3346 H   0  0  0  0  0  0  0  0  0  0  0  0
   -4.1098    0.2917    1.4159 H   0  0  0  0  0  0  0  0  0  0  0  0
   -2.0743    0.2436   -1.0771 C   0  0  0  0  0  0  0  0  0  0  0  0
   -0.8190   -0.3271   -1.1364 C   0  0  0  0  0  0  0  0  0  0  0  0
   -0.3607   -0.4694    0.1248 N   0  0  0  0  0  0  0  0  0  0  0  0
   -1.3282    0.0060    0.9339 C   0  0  0  0  0  0  0  0  0  0  0  0
    0.9236   -1.0341    0.5372 C   0  0  0  0  0  0  0  0  0  0  0  0
    2.0838   -0.2052   -0.0172 C   0  0  0  0  0  0  0  0  0  0  0  0
    0.9990   -2.0805    0.1703 H   0  0  0  0  0  0  0  0  0  0  0  0
    0.9908   -1.0462    1.6474 H   0  0  0  0  0  0  0  0  0  0  0  0
    3.3093   -0.7623    0.3722 O   0  0  0  0  0  0  0  0  0  0  0  0
    2.0110    0.8514    0.3287 H   0  0  0  0  0  0  0  0  0  0  0  0
    2.0443   -0.1919   -1.1267 H   0  0  0  0  0  0  0  0  0  0  0  0
    3.4623   -0.4848    1.3131 H   0  0  0  0  0  0  0  0  0  0  0  0
   -1.2682    0.0313    2.0152 H   0  0  0  0  0  0  0  0  0  0  0  0
   -2.7130    0.4894   -1.9157 H   0  0  0  0  0  0  0  0  0  0  0  0
   -0.2836   -0.6164   -2.0314 H   0  0  0  0  0  0  0  0  0  0  0  0
  1  2  1  0  0  0  0
  1  3  1  0  0  0  0
  1  4  1  0  0  0  0
  1  5  1  0  0  0  0
  2  6  1  0  0  0  0
  6  7  2  0  0  0  0
  6 19  1  0  0  0  0
  7  8  1  0  0  0  0
  7 20  1  0  0  0  0
  8  9  1  0  0  0  0
  8 10  1  0  0  0  0
  9  2  2  0  0  0  0
  9 18  1  0  0  0  0
 10 11  1  0  0  0  0
 10 12  1  0  0  0  0
 10 13  1  0  0  0  0
 11 14  1  0  0  0  0
 11 15  1  0  0  0  0
 11 16  1  0  0  0  0
 14 17  1  0  0  0  0
M  END
