
 OpenBabel01292413473D

 53 52  0  0  0  0  0  0  0  0999 V2000
    6.7763   -0.6660   -0.4505 O   0  0  0  0  0  0  0  0  0  0  0  0
    5.6321   -0.6549    1.5253 O   0  0  0  0  0  0  0  0  0  0  0  0
   -2.9317   -1.5483   -0.3525 C   0  0  0  0  0  0  0  0  0  0  0  0
   -4.0769   -1.2570    0.6207 C   0  0  0  0  0  0  0  0  0  0  0  0
   -1.7190   -2.1328    0.3760 C   0  0  0  0  0  0  0  0  0  0  0  0
   -0.1813    1.8451   -0.3720 C   0  0  0  0  0  0  0  0  0  0  0  0
    0.9763    1.2946    0.4619 C   0  0  0  0  0  0  0  0  0  0  0  0
   -5.3383   -0.7231   -0.0687 C   0  0  0  0  0  0  0  0  0  0  0  0
   -1.4415    2.0217    0.4761 C   0  0  0  0  0  0  0  0  0  0  0  0
    2.2123    1.0427   -0.4025 C   0  0  0  0  0  0  0  0  0  0  0  0
   -0.5586   -2.3869   -0.5879 C   0  0  0  0  0  0  0  0  0  0  0  0
   -5.1957    0.6619   -0.7113 C   0  0  0  0  0  0  0  0  0  0  0  0
   -2.6195    2.5053   -0.3721 C   0  0  0  0  0  0  0  0  0  0  0  0
    3.3551    0.4470    0.4210 C   0  0  0  0  0  0  0  0  0  0  0  0
    0.6617   -2.9434    0.1451 C   0  0  0  0  0  0  0  0  0  0  0  0
   -4.9695    1.7558    0.2955 C   0  0  0  0  0  0  0  0  0  0  0  0
   -3.8861    2.5374    0.4362 C   0  0  0  0  0  0  0  0  0  0  0  0
    4.5793    0.1703   -0.4454 C   0  0  0  0  0  0  0  0  0  0  0  0
    1.8221   -3.1850   -0.8069 C   0  0  0  0  0  0  0  0  0  0  0  0
    5.7748   -0.4436    0.2901 C   0  0  0  0  0  0  0  0  0  0  0  0
   -2.6309   -0.6309   -0.8683 H   0  0  0  0  0  0  0  0  0  0  0  0
   -3.2724   -2.2531   -1.1204 H   0  0  0  0  0  0  0  0  0  0  0  0
   -4.3424   -2.1866    1.1399 H   0  0  0  0  0  0  0  0  0  0  0  0
   -3.7430   -0.5559    1.3940 H   0  0  0  0  0  0  0  0  0  0  0  0
   -1.3958   -1.4427    1.1645 H   0  0  0  0  0  0  0  0  0  0  0  0
   -2.0022   -3.0722    0.8661 H   0  0  0  0  0  0  0  0  0  0  0  0
    0.1049    2.8069   -0.8142 H   0  0  0  0  0  0  0  0  0  0  0  0
   -0.3924    1.1584   -1.2008 H   0  0  0  0  0  0  0  0  0  0  0  0
    1.2226    2.0021    1.2629 H   0  0  0  0  0  0  0  0  0  0  0  0
    0.6695    0.3580    0.9423 H   0  0  0  0  0  0  0  0  0  0  0  0
   -6.1502   -0.6939    0.6695 H   0  0  0  0  0  0  0  0  0  0  0  0
   -5.6516   -1.4369   -0.8408 H   0  0  0  0  0  0  0  0  0  0  0  0
   -1.2453    2.7384    1.2836 H   0  0  0  0  0  0  0  0  0  0  0  0
   -1.6944    1.0676    0.9535 H   0  0  0  0  0  0  0  0  0  0  0  0
    2.5388    1.9842   -0.8605 H   0  0  0  0  0  0  0  0  0  0  0  0
    1.9547    0.3583   -1.2198 H   0  0  0  0  0  0  0  0  0  0  0  0
   -0.8748   -3.0927   -1.3656 H   0  0  0  0  0  0  0  0  0  0  0  0
   -0.2876   -1.4518   -1.0924 H   0  0  0  0  0  0  0  0  0  0  0  0
   -6.1305    0.8926   -1.2380 H   0  0  0  0  0  0  0  0  0  0  0  0
   -4.4239    0.6400   -1.4843 H   0  0  0  0  0  0  0  0  0  0  0  0
   -2.7228    1.8730   -1.2582 H   0  0  0  0  0  0  0  0  0  0  0  0
   -2.4169    3.5180   -0.7414 H   0  0  0  0  0  0  0  0  0  0  0  0
    3.0204   -0.4844    0.8939 H   0  0  0  0  0  0  0  0  0  0  0  0
    3.6226    1.1369    1.2309 H   0  0  0  0  0  0  0  0  0  0  0  0
    0.9785   -2.2433    0.9266 H   0  0  0  0  0  0  0  0  0  0  0  0
    0.4007   -3.8855    0.6410 H   0  0  0  0  0  0  0  0  0  0  0  0
   -5.7972    1.9214    0.9849 H   0  0  0  0  0  0  0  0  0  0  0  0
   -3.9022    3.2828    1.2312 H   0  0  0  0  0  0  0  0  0  0  0  0
    4.3049   -0.5143   -1.2577 H   0  0  0  0  0  0  0  0  0  0  0  0
    4.9186    1.1055   -0.9079 H   0  0  0  0  0  0  0  0  0  0  0  0
    2.1219   -2.2578   -1.3049 H   0  0  0  0  0  0  0  0  0  0  0  0
    2.6876   -3.5710   -0.2594 H   0  0  0  0  0  0  0  0  0  0  0  0
    1.5524   -3.9158   -1.5759 H   0  0  0  0  0  0  0  0  0  0  0  0
  1 20  1  0  0  0  0
  2 20  2  0  0  0  0
  3  4  1  0  0  0  0
  3  5  1  0  0  0  0
  3 21  1  0  0  0  0
  3 22  1  0  0  0  0
  4  8  1  0  0  0  0
  4 23  1  0  0  0  0
  4 24  1  0  0  0  0
  5 11  1  0  0  0  0
  5 25  1  0  0  0  0
  5 26  1  0  0  0  0
  6  7  1  0  0  0  0
  6  9  1  0  0  0  0
  6 27  1  0  0  0  0
  6 28  1  0  0  0  0
  7 10  1  0  0  0  0
  7 29  1  0  0  0  0
  7 30  1  0  0  0  0
  8 12  1  0  0  0  0
  8 31  1  0  0  0  0
  8 32  1  0  0  0  0
  9 13  1  0  0  0  0
  9 33  1  0  0  0  0
  9 34  1  0  0  0  0
 10 14  1  0  0  0  0
 10 35  1  0  0  0  0
 10 36  1  0  0  0  0
 11 15  1  0  0  0  0
 11 37  1  0  0  0  0
 11 38  1  0  0  0  0
 12 16  1  0  0  0  0
 12 39  1  0  0  0  0
 12 40  1  0  0  0  0
 13 17  1  0  0  0  0
 13 41  1  0  0  0  0
 13 42  1  0  0  0  0
 14 18  1  0  0  0  0
 14 43  1  0  0  0  0
 14 44  1  0  0  0  0
 15 19  1  0  0  0  0
 15 45  1  0  0  0  0
 15 46  1  0  0  0  0
 16 17  2  0  0  0  0
 16 47  1  0  0  0  0
 17 48  1  0  0  0  0
 18 20  1  0  0  0  0
 18 49  1  0  0  0  0
 18 50  1  0  0  0  0
 19 51  1  0  0  0  0
 19 52  1  0  0  0  0
 19 53  1  0  0  0  0
M  END
