
 OpenBabel05072322313D

 80 79  0  0  0  0  0  0  0  0999 V2000
    1.5698   -0.2871    0.4675 C   0  0  0  0  0  0  0  0  0  0  0  0
    0.9393   -1.4268   -0.3423 C   0  0  0  0  0  0  0  0  0  0  0  0
   -0.5340   -1.6090    0.0373 C   0  0  0  0  0  0  0  0  0  0  0  0
   -1.2101   -2.6801   -0.8296 C   0  0  0  0  0  0  0  0  0  0  0  0
   -2.7050   -2.7763   -0.5000 C   0  0  0  0  0  0  0  0  0  0  0  0
   -3.4280   -3.7748   -1.4556 C   0  0  0  0  0  0  0  0  0  0  0  0
    3.0326   -0.0670    0.0679 C   0  0  0  0  0  0  0  0  0  0  0  0
   -4.9328   -3.8287   -1.3763 N   0  3  0  0  0  0  0  0  0  0  0  0
    3.6458    1.0923    0.8484 C   0  0  0  0  0  0  0  0  0  0  0  0
   -5.4579   -3.7215    0.0271 C   0  0  0  0  0  0  0  0  0  0  0  0
   -5.1265   -6.4779    5.7829 C   0  0  0  0  0  0  0  0  0  0  0  0
   -5.5844   -5.3887    4.8059 C   0  0  0  0  0  0  0  0  0  0  0  0
   -5.0947   -5.6831    3.3829 C   0  0  0  0  0  0  0  0  0  0  0  0
   -5.5332   -4.5796    2.4123 C   0  0  0  0  0  0  0  0  0  0  0  0
   -5.0266   -4.8575    0.9908 C   0  0  0  0  0  0  0  0  0  0  0  0
   -5.6077   -6.1756    7.2068 C   0  0  0  0  0  0  0  0  0  0  0  0
   -5.1453   -7.2516    8.1849 C   0  0  0  0  0  0  0  0  0  0  0  0
   -5.5005    3.5362   -3.2077 C   0  0  0  0  0  0  0  0  0  0  0  0
   -6.0909    2.1474   -3.4878 C   0  0  0  0  0  0  0  0  0  0  0  0
   -5.3849    1.0933   -2.6308 C   0  0  0  0  0  0  0  0  0  0  0  0
   -5.9239   -0.3226   -2.8834 C   0  0  0  0  0  0  0  0  0  0  0  0
   -5.1504   -1.3224   -2.0155 C   0  0  0  0  0  0  0  0  0  0  0  0
   -5.5888   -2.7804   -2.2445 C   0  0  0  0  0  0  0  0  0  0  0  0
   -6.1751    4.6161   -4.0585 C   0  0  0  0  0  0  0  0  0  0  0  0
   -5.5734    5.9898   -3.7723 C   0  0  0  0  0  0  0  0  0  0  0  0
   -5.3644   -5.1314   -1.9597 C   0  0  0  0  0  0  0  0  0  0  0  0
    1.5123   -0.5257    1.5524 H   0  0  0  0  0  0  0  0  0  0  0  0
    1.0002    0.6499    0.2773 H   0  0  0  0  0  0  0  0  0  0  0  0
    1.4920   -2.3745   -0.1597 H   0  0  0  0  0  0  0  0  0  0  0  0
    1.0064   -1.1751   -1.4240 H   0  0  0  0  0  0  0  0  0  0  0  0
   -1.0590   -0.6407   -0.1229 H   0  0  0  0  0  0  0  0  0  0  0  0
   -0.6165   -1.8851    1.1116 H   0  0  0  0  0  0  0  0  0  0  0  0
   -0.7203   -3.6669   -0.6787 H   0  0  0  0  0  0  0  0  0  0  0  0
   -1.1009   -2.3850   -1.8968 H   0  0  0  0  0  0  0  0  0  0  0  0
   -3.1104   -1.7591   -0.5664 H   0  0  0  0  0  0  0  0  0  0  0  0
   -2.8176   -3.0812    0.5592 H   0  0  0  0  0  0  0  0  0  0  0  0
   -2.9854   -4.7691   -1.2164 H   0  0  0  0  0  0  0  0  0  0  0  0
   -3.1350   -3.5563   -2.5080 H   0  0  0  0  0  0  0  0  0  0  0  0
    3.0921    0.1658   -1.0179 H   0  0  0  0  0  0  0  0  0  0  0  0
    3.6182   -0.9905    0.2681 H   0  0  0  0  0  0  0  0  0  0  0  0
    3.0892    2.0320    0.6431 H   0  0  0  0  0  0  0  0  0  0  0  0
    4.7028    1.2323    0.5389 H   0  0  0  0  0  0  0  0  0  0  0  0
    3.6174    0.8829    1.9388 H   0  0  0  0  0  0  0  0  0  0  0  0
   -6.5719   -3.7094    0.0178 H   0  0  0  0  0  0  0  0  0  0  0  0
   -5.1458   -2.7549    0.4727 H   0  0  0  0  0  0  0  0  0  0  0  0
   -4.0153   -6.5313    5.7764 H   0  0  0  0  0  0  0  0  0  0  0  0
   -5.5340   -7.4604    5.4570 H   0  0  0  0  0  0  0  0  0  0  0  0
   -5.1761   -4.4082    5.1371 H   0  0  0  0  0  0  0  0  0  0  0  0
   -6.6955   -5.3329    4.8087 H   0  0  0  0  0  0  0  0  0  0  0  0
   -5.5068   -6.6593    3.0445 H   0  0  0  0  0  0  0  0  0  0  0  0
   -3.9839   -5.7450    3.3856 H   0  0  0  0  0  0  0  0  0  0  0  0
   -5.1203   -3.6074    2.7615 H   0  0  0  0  0  0  0  0  0  0  0  0
   -6.6437   -4.5141    2.4032 H   0  0  0  0  0  0  0  0  0  0  0  0
   -3.9231   -4.9478    1.0232 H   0  0  0  0  0  0  0  0  0  0  0  0
   -5.4475   -5.8293    0.6607 H   0  0  0  0  0  0  0  0  0  0  0  0
   -6.7184   -6.1271    7.2238 H   0  0  0  0  0  0  0  0  0  0  0  0
   -5.2026   -5.1943    7.5376 H   0  0  0  0  0  0  0  0  0  0  0  0
   -5.5534   -8.2421    7.8911 H   0  0  0  0  0  0  0  0  0  0  0  0
   -5.5066   -7.0065    9.2059 H   0  0  0  0  0  0  0  0  0  0  0  0
   -4.0358   -7.3047    8.2040 H   0  0  0  0  0  0  0  0  0  0  0  0
   -4.4114    3.5230   -3.4359 H   0  0  0  0  0  0  0  0  0  0  0  0
   -5.6355    3.7815   -2.1308 H   0  0  0  0  0  0  0  0  0  0  0  0
   -5.9543    1.8985   -4.5632 H   0  0  0  0  0  0  0  0  0  0  0  0
   -7.1781    2.1491   -3.2534 H   0  0  0  0  0  0  0  0  0  0  0  0
   -5.5185    1.3482   -1.5558 H   0  0  0  0  0  0  0  0  0  0  0  0
   -4.2975    1.1130   -2.8673 H   0  0  0  0  0  0  0  0  0  0  0  0
   -5.7909   -0.5823   -3.9568 H   0  0  0  0  0  0  0  0  0  0  0  0
   -7.0066   -0.3644   -2.6335 H   0  0  0  0  0  0  0  0  0  0  0  0
   -5.2986   -1.0383   -0.9533 H   0  0  0  0  0  0  0  0  0  0  0  0
   -4.0887   -1.2238   -2.3170 H   0  0  0  0  0  0  0  0  0  0  0  0
   -6.6950   -2.8308   -2.1161 H   0  0  0  0  0  0  0  0  0  0  0  0
   -5.3871   -2.9885   -3.3216 H   0  0  0  0  0  0  0  0  0  0  0  0
   -7.2632    4.6447   -3.8329 H   0  0  0  0  0  0  0  0  0  0  0  0
   -6.0384    4.3817   -5.1367 H   0  0  0  0  0  0  0  0  0  0  0  0
   -5.7131    6.2578   -2.7032 H   0  0  0  0  0  0  0  0  0  0  0  0
   -6.0755    6.7559   -4.3996 H   0  0  0  0  0  0  0  0  0  0  0  0
   -4.4877    5.9930   -4.0086 H   0  0  0  0  0  0  0  0  0  0  0  0
   -4.8994   -6.0001   -1.4482 H   0  0  0  0  0  0  0  0  0  0  0  0
   -5.0568   -5.2197   -3.0266 H   0  0  0  0  0  0  0  0  0  0  0  0
   -6.4702   -5.2539   -1.9100 H   0  0  0  0  0  0  0  0  0  0  0  0
  1  2  1  0  0  0  0
  1  7  1  0  0  0  0
  1 27  1  0  0  0  0
  1 28  1  0  0  0  0
  2  3  1  0  0  0  0
  2 29  1  0  0  0  0
  2 30  1  0  0  0  0
  3  4  1  0  0  0  0
  3 31  1  0  0  0  0
  3 32  1  0  0  0  0
  4  5  1  0  0  0  0
  4 33  1  0  0  0  0
  4 34  1  0  0  0  0
  5  6  1  0  0  0  0
  5 35  1  0  0  0  0
  5 36  1  0  0  0  0
  6  8  1  0  0  0  0
  6 37  1  0  0  0  0
  6 38  1  0  0  0  0
  7  9  1  0  0  0  0
  7 39  1  0  0  0  0
  7 40  1  0  0  0  0
  8 10  1  0  0  0  0
  8 23  1  0  0  0  0
  8 26  1  0  0  0  0
  9 41  1  0  0  0  0
  9 42  1  0  0  0  0
  9 43  1  0  0  0  0
 10 15  1  0  0  0  0
 10 44  1  0  0  0  0
 10 45  1  0  0  0  0
 11 12  1  0  0  0  0
 11 16  1  0  0  0  0
 11 46  1  0  0  0  0
 11 47  1  0  0  0  0
 12 13  1  0  0  0  0
 12 48  1  0  0  0  0
 12 49  1  0  0  0  0
 13 14  1  0  0  0  0
 13 50  1  0  0  0  0
 13 51  1  0  0  0  0
 14 15  1  0  0  0  0
 14 52  1  0  0  0  0
 14 53  1  0  0  0  0
 15 54  1  0  0  0  0
 15 55  1  0  0  0  0
 16 17  1  0  0  0  0
 16 56  1  0  0  0  0
 16 57  1  0  0  0  0
 17 58  1  0  0  0  0
 17 59  1  0  0  0  0
 17 60  1  0  0  0  0
 18 19  1  0  0  0  0
 18 24  1  0  0  0  0
 18 61  1  0  0  0  0
 18 62  1  0  0  0  0
 19 20  1  0  0  0  0
 19 63  1  0  0  0  0
 19 64  1  0  0  0  0
 20 21  1  0  0  0  0
 20 65  1  0  0  0  0
 20 66  1  0  0  0  0
 21 22  1  0  0  0  0
 21 67  1  0  0  0  0
 21 68  1  0  0  0  0
 22 23  1  0  0  0  0
 22 69  1  0  0  0  0
 22 70  1  0  0  0  0
 23 71  1  0  0  0  0
 23 72  1  0  0  0  0
 24 25  1  0  0  0  0
 24 73  1  0  0  0  0
 24 74  1  0  0  0  0
 25 75  1  0  0  0  0
 25 76  1  0  0  0  0
 25 77  1  0  0  0  0
 26 78  1  0  0  0  0
 26 79  1  0  0  0  0
 26 80  1  0  0  0  0
M  CHG  1   8   1
M  END
