
 OpenBabel11162013073D

 80 79  0  0  0  0  0  0  0  0999 V2000
    0.9987    0.0946    0.0323 C   0  0  0  0  0  0  0  0  0  0  0  0
    0.4920   -1.2618   -0.4301 C   0  0  0  0  0  0  0  0  0  0  0  0
   -1.0280   -1.2618   -0.4301 C   0  0  0  0  0  0  0  0  0  0  0  0
   -1.5346   -2.6182   -0.8924 C   0  0  0  0  0  0  0  0  0  0  0  0
   -3.0546   -2.6182   -0.8924 C   0  0  0  0  0  0  0  0  0  0  0  0
   -3.5613   -3.9747   -1.3547 C   0  0  0  0  0  0  0  0  0  0  0  0
    2.5187    0.0946    0.0323 C   0  0  0  0  0  0  0  0  0  0  0  0
   -5.0313   -3.9747   -1.3547 N   0  3  0  0  0  0  0  0  0  0  0  0
    3.0254    1.4511    0.4946 C   0  0  0  0  0  0  0  0  0  0  0  0
   -5.5213   -3.7060    0.0049 C   0  0  0  0  0  0  0  0  0  0  0  0
   -5.0146   -6.3861    5.6473 C   0  0  0  0  0  0  0  0  0  0  0  0
   -5.5213   -5.3075    4.7038 C   0  0  0  0  0  0  0  0  0  0  0  0
   -5.0146   -5.5854    3.2979 C   0  0  0  0  0  0  0  0  0  0  0  0
   -5.5213   -4.5068    2.3543 C   0  0  0  0  0  0  0  0  0  0  0  0
   -5.0146   -4.7846    0.9485 C   0  0  0  0  0  0  0  0  0  0  0  0
   -5.5213   -6.1083    7.0532 C   0  0  0  0  0  0  0  0  0  0  0  0
   -5.0146   -7.1869    7.9967 C   0  0  0  0  0  0  0  0  0  0  0  0
   -5.0146    3.2950   -2.7673 C   0  0  0  0  0  0  0  0  0  0  0  0
   -5.5213    1.9385   -3.2297 C   0  0  0  0  0  0  0  0  0  0  0  0
   -5.0146    0.8599   -2.2861 C   0  0  0  0  0  0  0  0  0  0  0  0
   -5.5213   -0.4965   -2.7485 C   0  0  0  0  0  0  0  0  0  0  0  0
   -5.0146   -1.5751   -1.8049 C   0  0  0  0  0  0  0  0  0  0  0  0
   -5.5213   -2.9316   -2.2672 C   0  0  0  0  0  0  0  0  0  0  0  0
   -5.5213    4.3736   -3.7109 C   0  0  0  0  0  0  0  0  0  0  0  0
   -5.0146    5.7300   -3.2486 C   0  0  0  0  0  0  0  0  0  0  0  0
   -5.5213   -5.2865   -1.8018 C   0  0  0  0  0  0  0  0  0  0  0  0
    0.6420    0.2902    1.0219 H   0  0  0  0  0  0  0  0  0  0  0  0
    0.6420    0.8539   -0.6320 H   0  0  0  0  0  0  0  0  0  0  0  0
    0.8487   -2.0211    0.2341 H   0  0  0  0  0  0  0  0  0  0  0  0
    0.8487   -1.4574   -1.4197 H   0  0  0  0  0  0  0  0  0  0  0  0
   -1.3846   -0.5025   -1.0943 H   0  0  0  0  0  0  0  0  0  0  0  0
   -1.3846   -1.0662    0.5596 H   0  0  0  0  0  0  0  0  0  0  0  0
   -1.1780   -3.3775   -0.2282 H   0  0  0  0  0  0  0  0  0  0  0  0
   -1.1780   -2.8138   -1.8821 H   0  0  0  0  0  0  0  0  0  0  0  0
   -3.4113   -1.8590   -1.5566 H   0  0  0  0  0  0  0  0  0  0  0  0
   -3.4113   -2.4227    0.0973 H   0  0  0  0  0  0  0  0  0  0  0  0
   -3.2046   -4.7340   -0.6905 H   0  0  0  0  0  0  0  0  0  0  0  0
   -3.2046   -4.1703   -2.3444 H   0  0  0  0  0  0  0  0  0  0  0  0
    2.8754   -0.1009   -0.9574 H   0  0  0  0  0  0  0  0  0  0  0  0
    2.8754   -0.6646    0.6965 H   0  0  0  0  0  0  0  0  0  0  0  0
    2.6687    2.2104   -0.1696 H   0  0  0  0  0  0  0  0  0  0  0  0
    4.0954    1.4511    0.4946 H   0  0  0  0  0  0  0  0  0  0  0  0
    2.6687    1.6467    1.4843 H   0  0  0  0  0  0  0  0  0  0  0  0
   -6.5913   -3.7060    0.0049 H   0  0  0  0  0  0  0  0  0  0  0  0
   -5.1646   -2.7511    0.3304 H   0  0  0  0  0  0  0  0  0  0  0  0
   -3.9446   -6.3861    5.6473 H   0  0  0  0  0  0  0  0  0  0  0  0
   -5.3713   -7.3410    5.3219 H   0  0  0  0  0  0  0  0  0  0  0  0
   -5.1646   -4.3527    5.0292 H   0  0  0  0  0  0  0  0  0  0  0  0
   -6.5913   -5.3075    4.7038 H   0  0  0  0  0  0  0  0  0  0  0  0
   -5.3713   -6.5402    2.9724 H   0  0  0  0  0  0  0  0  0  0  0  0
   -3.9446   -5.5854    3.2979 H   0  0  0  0  0  0  0  0  0  0  0  0
   -5.1646   -3.5519    2.6798 H   0  0  0  0  0  0  0  0  0  0  0  0
   -6.5913   -4.5068    2.3543 H   0  0  0  0  0  0  0  0  0  0  0  0
   -3.9446   -4.7846    0.9485 H   0  0  0  0  0  0  0  0  0  0  0  0
   -5.3713   -5.7395    0.6230 H   0  0  0  0  0  0  0  0  0  0  0  0
   -6.5913   -6.1083    7.0532 H   0  0  0  0  0  0  0  0  0  0  0  0
   -5.1646   -5.1534    7.3787 H   0  0  0  0  0  0  0  0  0  0  0  0
   -5.3713   -8.1418    7.6713 H   0  0  0  0  0  0  0  0  0  0  0  0
   -5.3713   -6.9913    8.9864 H   0  0  0  0  0  0  0  0  0  0  0  0
   -3.9446   -7.1869    7.9968 H   0  0  0  0  0  0  0  0  0  0  0  0
   -3.9446    3.2950   -2.7673 H   0  0  0  0  0  0  0  0  0  0  0  0
   -5.3713    3.4906   -1.7777 H   0  0  0  0  0  0  0  0  0  0  0  0
   -5.1646    1.7430   -4.2193 H   0  0  0  0  0  0  0  0  0  0  0  0
   -6.5913    1.9385   -3.2297 H   0  0  0  0  0  0  0  0  0  0  0  0
   -5.3713    1.0555   -1.2965 H   0  0  0  0  0  0  0  0  0  0  0  0
   -3.9446    0.8599   -2.2861 H   0  0  0  0  0  0  0  0  0  0  0  0
   -5.1646   -0.6921   -3.7381 H   0  0  0  0  0  0  0  0  0  0  0  0
   -6.5913   -0.4965   -2.7485 H   0  0  0  0  0  0  0  0  0  0  0  0
   -5.3713   -1.3795   -0.8152 H   0  0  0  0  0  0  0  0  0  0  0  0
   -3.9446   -1.5751   -1.8049 H   0  0  0  0  0  0  0  0  0  0  0  0
   -6.5913   -2.9316   -2.2672 H   0  0  0  0  0  0  0  0  0  0  0  0
   -5.1646   -3.1271   -3.2569 H   0  0  0  0  0  0  0  0  0  0  0  0
   -6.5913    4.3736   -3.7109 H   0  0  0  0  0  0  0  0  0  0  0  0
   -5.1646    4.1780   -4.7006 H   0  0  0  0  0  0  0  0  0  0  0  0
   -5.3713    5.9256   -2.2589 H   0  0  0  0  0  0  0  0  0  0  0  0
   -5.3713    6.4893   -3.9128 H   0  0  0  0  0  0  0  0  0  0  0  0
   -3.9446    5.7300   -3.2486 H   0  0  0  0  0  0  0  0  0  0  0  0
   -5.1646   -6.0458   -1.1376 H   0  0  0  0  0  0  0  0  0  0  0  0
   -5.1646   -5.4821   -2.7915 H   0  0  0  0  0  0  0  0  0  0  0  0
   -6.5913   -5.2865   -1.8018 H   0  0  0  0  0  0  0  0  0  0  0  0
  1  2  1  0  0  0  0
  1  7  1  0  0  0  0
  1 27  1  0  0  0  0
  1 28  1  0  0  0  0
  2  3  1  0  0  0  0
  2 29  1  0  0  0  0
  2 30  1  0  0  0  0
  3  4  1  0  0  0  0
  3 31  1  0  0  0  0
  3 32  1  0  0  0  0
  4  5  1  0  0  0  0
  4 33  1  0  0  0  0
  4 34  1  0  0  0  0
  5  6  1  0  0  0  0
  5 35  1  0  0  0  0
  5 36  1  0  0  0  0
  6  8  1  0  0  0  0
  6 37  1  0  0  0  0
  6 38  1  0  0  0  0
  7  9  1  0  0  0  0
  7 39  1  0  0  0  0
  7 40  1  0  0  0  0
  8 10  1  0  0  0  0
  8 23  1  0  0  0  0
  8 26  1  0  0  0  0
  9 41  1  0  0  0  0
  9 42  1  0  0  0  0
  9 43  1  0  0  0  0
 10 15  1  0  0  0  0
 10 44  1  0  0  0  0
 10 45  1  0  0  0  0
 11 12  1  0  0  0  0
 11 16  1  0  0  0  0
 11 46  1  0  0  0  0
 11 47  1  0  0  0  0
 12 13  1  0  0  0  0
 12 48  1  0  0  0  0
 12 49  1  0  0  0  0
 13 14  1  0  0  0  0
 13 50  1  0  0  0  0
 13 51  1  0  0  0  0
 14 15  1  0  0  0  0
 14 52  1  0  0  0  0
 14 53  1  0  0  0  0
 15 54  1  0  0  0  0
 15 55  1  0  0  0  0
 16 17  1  0  0  0  0
 16 56  1  0  0  0  0
 16 57  1  0  0  0  0
 17 58  1  0  0  0  0
 17 59  1  0  0  0  0
 17 60  1  0  0  0  0
 18 19  1  0  0  0  0
 18 24  1  0  0  0  0
 18 61  1  0  0  0  0
 18 62  1  0  0  0  0
 19 20  1  0  0  0  0
 19 63  1  0  0  0  0
 19 64  1  0  0  0  0
 20 21  1  0  0  0  0
 20 65  1  0  0  0  0
 20 66  1  0  0  0  0
 21 22  1  0  0  0  0
 21 67  1  0  0  0  0
 21 68  1  0  0  0  0
 22 23  1  0  0  0  0
 22 69  1  0  0  0  0
 22 70  1  0  0  0  0
 23 71  1  0  0  0  0
 23 72  1  0  0  0  0
 24 25  1  0  0  0  0
 24 73  1  0  0  0  0
 24 74  1  0  0  0  0
 25 75  1  0  0  0  0
 25 76  1  0  0  0  0
 25 77  1  0  0  0  0
 26 78  1  0  0  0  0
 26 79  1  0  0  0  0
 26 80  1  0  0  0  0
M  CHG  1   8   1
M  END