
 OpenBabel08262411103D

 22 21  0  0  0  0  0  0  0  0999 V2000
    0.5579   -1.4325   -0.6102 O   0  0  0  0  0  0  0  0  0  0  0  0
   -3.9841    3.3563   -1.6966 O   0  0  0  0  0  0  0  0  0  0  0  0
    1.1858   -0.5397    1.3990 O   0  0  0  0  0  0  0  0  0  0  0  0
   -4.9791    2.5129    0.1421 O   0  0  0  0  0  0  0  0  0  0  0  0
   -1.3547    1.5796    0.4555 C   0  0  0  0  0  0  0  0  0  0  0  0
   -1.5729    0.4365    1.4547 C   0  0  0  0  0  0  0  0  0  0  0  0
   -1.8823    1.3374   -0.9618 C   0  0  0  0  0  0  0  0  0  0  0  0
   -1.1090   -0.9376    0.9786 C   0  0  0  0  0  0  0  0  0  0  0  0
   -3.3909    1.1280   -1.0496 C   0  0  0  0  0  0  0  0  0  0  0  0
    0.3589   -0.9733    0.5504 C   0  0  0  0  0  0  0  0  0  0  0  0
   -4.1835    2.3831   -0.7761 C   0  0  0  0  0  0  0  0  0  0  0  0
   -1.8085    2.4909    0.8638 H   0  0  0  0  0  0  0  0  0  0  0  0
   -0.2796    1.7875    0.3860 H   0  0  0  0  0  0  0  0  0  0  0  0
   -2.6367    0.3770    1.7137 H   0  0  0  0  0  0  0  0  0  0  0  0
   -1.0522    0.6939    2.3858 H   0  0  0  0  0  0  0  0  0  0  0  0
   -1.5825    2.1905   -1.5817 H   0  0  0  0  0  0  0  0  0  0  0  0
   -1.3824    0.4667   -1.3992 H   0  0  0  0  0  0  0  0  0  0  0  0
   -1.7469   -1.2884    0.1591 H   0  0  0  0  0  0  0  0  0  0  0  0
   -1.2332   -1.6608    1.7941 H   0  0  0  0  0  0  0  0  0  0  0  0
   -3.6630    0.7834   -2.0546 H   0  0  0  0  0  0  0  0  0  0  0  0
   -3.7265    0.3467   -0.3601 H   0  0  0  0  0  0  0  0  0  0  0  0
   -3.3314    3.1028   -2.3768 H   0  0  0  0  0  0  0  0  0  0  0  0
  1 10  1  0  0  0  0
  2 11  1  0  0  0  0
  2 22  1  0  0  0  0
  3 10  2  0  0  0  0
  4 11  2  0  0  0  0
  5  6  1  0  0  0  0
  5  7  1  0  0  0  0
  5 12  1  0  0  0  0
  5 13  1  0  0  0  0
  6  8  1  0  0  0  0
  6 14  1  0  0  0  0
  6 15  1  0  0  0  0
  7  9  1  0  0  0  0
  7 16  1  0  0  0  0
  7 17  1  0  0  0  0
  8 10  1  0  0  0  0
  8 18  1  0  0  0  0
  8 19  1  0  0  0  0
  9 11  1  0  0  0  0
  9 20  1  0  0  0  0
  9 21  1  0  0  0  0
M  END
