
 OpenBabel10172317163D

 14 13  0  0  0  0  0  0  0  0999 V2000
    1.0473    0.0484   -0.0328 C   0  0  0  0  0  0  0  0  0  0  0  0
    2.5670    0.0785   -0.0524 C   0  0  0  0  0  0  0  0  0  0  0  0
    3.0834    1.2663   -0.8488 C   0  0  0  0  0  0  0  0  0  0  0  0
    4.5659    1.2508   -0.8378 N   0  3  0  0  0  0  0  0  0  0  0  0
    0.6924   -0.8116    0.5437 H   0  0  0  0  0  0  0  0  0  0  0  0
    0.6435   -0.0325   -1.0471 H   0  0  0  0  0  0  0  0  0  0  0  0
    0.6430    0.9559    0.4269 H   0  0  0  0  0  0  0  0  0  0  0  0
    2.9394   -0.8570   -0.4868 H   0  0  0  0  0  0  0  0  0  0  0  0
    2.9389    0.1253    0.9781 H   0  0  0  0  0  0  0  0  0  0  0  0
    2.7726    2.2197   -0.4114 H   0  0  0  0  0  0  0  0  0  0  0  0
    2.7732    1.2235   -1.8970 H   0  0  0  0  0  0  0  0  0  0  0  0
    4.9391    1.3154    0.1188 H   0  0  0  0  0  0  0  0  0  0  0  0
    4.9482    2.0439   -1.3695 H   0  0  0  0  0  0  0  0  0  0  0  0
    4.9396    0.3905   -1.2604 H   0  0  0  0  0  0  0  0  0  0  0  0
  1  5  1  0  0  0  0
  1  6  1  0  0  0  0
  1  7  1  0  0  0  0
  2  1  1  0  0  0  0
  2  8  1  0  0  0  0
  2  9  1  0  0  0  0
  3  2  1  0  0  0  0
  3 10  1  0  0  0  0
  3 11  1  0  0  0  0
  4  3  1  0  0  0  0
  4 12  1  0  0  0  0
  4 13  1  0  0  0  0
  4 14  1  0  0  0  0
M  CHG  1   4   1
M  END
