
 OpenBabel01292413513D

 55 54  0  0  0  0  0  0  0  0999 V2000
    1.0772    0.0072    0.0113 C   0  0  0  0  0  0  0  0  0  0  0  0
    0.5406    0.7832    1.2138 C   0  0  0  0  0  0  0  0  0  0  0  0
    2.5973   -0.0064   -0.0097 C   0  0  0  0  0  0  0  0  0  0  0  0
   -0.9888    0.7945    1.2312 C   0  0  0  0  0  0  0  0  0  0  0  0
   -1.5259    1.5710    2.4346 C   0  0  0  0  0  0  0  0  0  0  0  0
   -3.0554    1.5822    2.4518 C   0  0  0  0  0  0  0  0  0  0  0  0
   -3.5927    2.3587    3.6551 C   0  0  0  0  0  0  0  0  0  0  0  0
   -5.1221    2.3698    3.6722 C   0  0  0  0  0  0  0  0  0  0  0  0
   -5.6596    3.1463    4.8754 C   0  0  0  0  0  0  0  0  0  0  0  0
   -7.1890    3.1572    4.8922 C   0  0  0  0  0  0  0  0  0  0  0  0
   -7.7267    3.9337    6.0954 C   0  0  0  0  0  0  0  0  0  0  0  0
   -9.2562    3.9445    6.1120 C   0  0  0  0  0  0  0  0  0  0  0  0
   -9.7941    4.7209    7.3151 C   0  0  0  0  0  0  0  0  0  0  0  0
  -11.3236    4.7316    7.3315 C   0  0  0  0  0  0  0  0  0  0  0  0
  -11.8617    5.5080    8.5346 C   0  0  0  0  0  0  0  0  0  0  0  0
  -13.3913    5.5187    8.5510 C   0  0  0  0  0  0  0  0  0  0  0  0
  -13.9300    6.2925    9.7500 C   0  0  0  0  0  0  0  0  0  0  0  0
  -15.4573    6.3588    9.8526 C   0  0  0  0  0  0  0  0  0  0  0  0
  -16.1117    5.7741    8.9466 O   0  0  0  0  0  0  0  0  0  0  0  0
  -15.8787    7.0057   10.8550 O   0  0  0  0  0  0  0  0  0  0  0  0
    0.7088    0.4581   -0.9175 H   0  0  0  0  0  0  0  0  0  0  0  0
    0.7088   -1.0249    0.0394 H   0  0  0  0  0  0  0  0  0  0  0  0
    0.9154    1.8136    1.1831 H   0  0  0  0  0  0  0  0  0  0  0  0
    0.9153    0.3307    2.1400 H   0  0  0  0  0  0  0  0  0  0  0  0
    2.9980    1.0105   -0.0703 H   0  0  0  0  0  0  0  0  0  0  0  0
    2.9594   -0.5664   -0.8776 H   0  0  0  0  0  0  0  0  0  0  0  0
    2.9979   -0.4807    0.8919 H   0  0  0  0  0  0  0  0  0  0  0  0
   -1.3634   -0.2359    1.2621 H   0  0  0  0  0  0  0  0  0  0  0  0
   -1.3633    1.2472    0.3050 H   0  0  0  0  0  0  0  0  0  0  0  0
   -1.1514    2.6015    2.4038 H   0  0  0  0  0  0  0  0  0  0  0  0
   -1.1515    1.1184    3.3608 H   0  0  0  0  0  0  0  0  0  0  0  0
   -3.4299    0.5518    2.4826 H   0  0  0  0  0  0  0  0  0  0  0  0
   -3.4299    2.0348    1.5256 H   0  0  0  0  0  0  0  0  0  0  0  0
   -3.2182    3.3892    3.6243 H   0  0  0  0  0  0  0  0  0  0  0  0
   -3.2182    1.9061    4.5814 H   0  0  0  0  0  0  0  0  0  0  0  0
   -5.4966    1.3393    3.7030 H   0  0  0  0  0  0  0  0  0  0  0  0
   -5.4965    2.8224    2.7459 H   0  0  0  0  0  0  0  0  0  0  0  0
   -5.2852    4.1767    4.8446 H   0  0  0  0  0  0  0  0  0  0  0  0
   -5.2852    2.6937    5.8017 H   0  0  0  0  0  0  0  0  0  0  0  0
   -7.5634    2.1267    4.9230 H   0  0  0  0  0  0  0  0  0  0  0  0
   -7.5633    3.6098    3.9659 H   0  0  0  0  0  0  0  0  0  0  0  0
   -7.3524    4.9642    6.0647 H   0  0  0  0  0  0  0  0  0  0  0  0
   -7.3525    3.4811    7.0217 H   0  0  0  0  0  0  0  0  0  0  0  0
   -9.6305    2.9139    6.1427 H   0  0  0  0  0  0  0  0  0  0  0  0
   -9.6304    4.3970    5.1856 H   0  0  0  0  0  0  0  0  0  0  0  0
   -9.4199    5.7514    7.2844 H   0  0  0  0  0  0  0  0  0  0  0  0
   -9.4199    4.2683    8.2415 H   0  0  0  0  0  0  0  0  0  0  0  0
  -11.6978    3.7010    7.3622 H   0  0  0  0  0  0  0  0  0  0  0  0
  -11.6977    5.1841    6.4051 H   0  0  0  0  0  0  0  0  0  0  0  0
  -11.4874    6.5385    8.5038 H   0  0  0  0  0  0  0  0  0  0  0  0
  -11.4875    5.0554    9.4609 H   0  0  0  0  0  0  0  0  0  0  0  0
  -13.7651    4.4877    8.5785 H   0  0  0  0  0  0  0  0  0  0  0  0
  -13.7651    5.9685    7.6229 H   0  0  0  0  0  0  0  0  0  0  0  0
  -13.5554    7.3232    9.7178 H   0  0  0  0  0  0  0  0  0  0  0  0
  -13.5555    5.8385   10.6760 H   0  0  0  0  0  0  0  0  0  0  0  0
  1  2  1  0  0  0  0
  1  3  1  0  0  0  0
  1 21  1  0  0  0  0
  1 22  1  0  0  0  0
  2  4  1  0  0  0  0
  2 23  1  0  0  0  0
  2 24  1  0  0  0  0
  3 25  1  0  0  0  0
  3 26  1  0  0  0  0
  3 27  1  0  0  0  0
  4  5  1  0  0  0  0
  4 28  1  0  0  0  0
  4 29  1  0  0  0  0
  5  6  1  0  0  0  0
  5 30  1  0  0  0  0
  5 31  1  0  0  0  0
  6  7  1  0  0  0  0
  6 32  1  0  0  0  0
  6 33  1  0  0  0  0
  7  8  1  0  0  0  0
  7 34  1  0  0  0  0
  7 35  1  0  0  0  0
  8  9  1  0  0  0  0
  8 36  1  0  0  0  0
  8 37  1  0  0  0  0
  9 10  1  0  0  0  0
  9 38  1  0  0  0  0
  9 39  1  0  0  0  0
 10 11  1  0  0  0  0
 10 40  1  0  0  0  0
 10 41  1  0  0  0  0
 11 12  1  0  0  0  0
 11 42  1  0  0  0  0
 11 43  1  0  0  0  0
 12 13  1  0  0  0  0
 12 44  1  0  0  0  0
 12 45  1  0  0  0  0
 13 14  1  0  0  0  0
 13 46  1  0  0  0  0
 13 47  1  0  0  0  0
 14 15  1  0  0  0  0
 14 48  1  0  0  0  0
 14 49  1  0  0  0  0
 15 16  1  0  0  0  0
 15 50  1  0  0  0  0
 15 51  1  0  0  0  0
 16 17  1  0  0  0  0
 16 52  1  0  0  0  0
 16 53  1  0  0  0  0
 17 18  1  0  0  0  0
 17 54  1  0  0  0  0
 17 55  1  0  0  0  0
 18 19  2  0  0  0  0
 18 20  1  0  0  0  0
M  END
