
 OpenBabel01292413513D

 12 11  0  0  0  0  0  0  0  0999 V2000
    2.9032   -0.8787    0.0087 O   0  0  0  0  0  0  0  0  0  0  0  0
   -2.9014    0.8757   -0.0040 O   0  0  0  0  0  0  0  0  0  0  0  0
    2.1647    1.2725   -0.0093 O   0  0  0  0  0  0  0  0  0  0  0  0
   -2.1630   -1.2756    0.0059 O   0  0  0  0  0  0  0  0  0  0  0  0
    0.5670   -0.5150    0.0035 C   0  0  0  0  0  0  0  0  0  0  0  0
   -0.5652    0.5120   -0.0034 C   0  0  0  0  0  0  0  0  0  0  0  0
    2.0042    0.0189    0.0006 C   0  0  0  0  0  0  0  0  0  0  0  0
   -2.0025   -0.0219   -0.0001 C   0  0  0  0  0  0  0  0  0  0  0  0
    0.4606   -1.1677   -0.8725 H   0  0  0  0  0  0  0  0  0  0  0  0
    0.4598   -1.1567    0.8874 H   0  0  0  0  0  0  0  0  0  0  0  0
   -0.4583    1.1534   -0.8875 H   0  0  0  0  0  0  0  0  0  0  0  0
   -0.4585    1.1649    0.8724 H   0  0  0  0  0  0  0  0  0  0  0  0
  1  7  1  0  0  0  0
  2  8  1  0  0  0  0
  3  7  2  0  0  0  0
  4  8  2  0  0  0  0
  5  6  1  0  0  0  0
  5  7  1  0  0  0  0
  5  9  1  0  0  0  0
  5 10  1  0  0  0  0
  6  8  1  0  0  0  0
  6 11  1  0  0  0  0
  6 12  1  0  0  0  0
M  END
