
 OpenBabel04222413473D

 15 14  0  0  1  0  0  0  0  0999 V2000
   -1.1164    1.5750    1.3013 O   0  0  0  0  0  0  0  0  0  0  0  0
    1.0053   -1.4398    1.3848 O   0  0  0  0  0  0  0  0  0  0  0  0
   -0.9888   -1.4943   -0.5668 O   0  5  0  0  0  0  0  0  0  0  0  0
    1.1043    1.5852   -0.6587 O   0  5  0  0  0  0  0  0  0  0  0  0
   -2.1681    0.4690   -0.7768 O   0  0  0  0  0  0  0  0  0  0  0  0
    2.2242   -0.3154   -0.8744 O   0  0  0  0  0  0  0  0  0  0  0  0
   -0.7743    0.1807    1.1119 C   0  0  2  0  0  0  0  0  0  0  0  0
    0.7341   -0.0589    1.0835 C   0  0  2  0  0  0  0  0  0  0  0  0
   -1.3753   -0.3442   -0.2147 C   0  0  0  0  0  0  0  0  0  0  0  0
    1.4084    0.3400   -0.2386 C   0  0  0  0  0  0  0  0  0  0  0  0
   -1.2409   -0.3759    1.9325 H   0  0  0  0  0  0  0  0  0  0  0  0
    1.2208    0.5327    1.8672 H   0  0  0  0  0  0  0  0  0  0  0  0
   -1.7099    1.7455    0.5279 H   0  0  0  0  0  0  0  0  0  0  0  0
    0.5320   -1.9242    0.6638 H   0  0  0  0  0  0  0  0  0  0  0  0
    1.5045    1.6216   -1.5495 H   0  0  0  0  0  0  0  0  0  0  0  0
  1  7  1  0  0  0  0
  1 13  1  0  0  0  0
  2  8  1  0  0  0  0
  2 14  1  0  0  0  0
  3  9  1  0  0  0  0
  4 10  1  0  0  0  0
  4 15  1  0  0  0  0
  5  9  2  0  0  0  0
  6 10  2  0  0  0  0
  7  8  1  0  0  0  0
  7  9  1  0  0  0  0
  7 11  1  1  0  0  0
  8 10  1  0  0  0  0
  8 12  1  1  0  0  0
M  CHG  2   3  -1   4  -1
M  END
