
 OpenBabel12072221183D

 13 13  0  0  0  0  0  0  0  0999 V2000
   -1.0037   -0.4652   -0.2366 N   0  0  0  0  0  0  0  0  0  0  0  0
    0.3019   -0.7853   -0.1987 C   0  0  0  0  0  0  0  0  0  0  0  0
    0.4427   -2.1341   -0.4074 C   0  0  0  0  0  0  0  0  0  0  0  0
   -0.7691   -2.6815   -0.6008 N   0  0  0  0  0  0  0  0  0  0  0  0
    1.6799   -2.8674   -0.4054 C   0  0  0  0  0  0  0  0  0  0  0  0
    1.3712    0.1503    0.0275 C   0  0  0  0  0  0  0  0  0  0  0  0
    2.6830   -3.4440   -0.4010 N   0  0  0  0  0  0  0  0  0  0  0  0
    2.2440    0.8883    0.2080 N   0  0  0  0  0  0  0  0  0  0  0  0
   -1.6250   -1.6408   -0.4856 C   0  0  0  0  0  0  0  0  0  0  0  0
   -3.1117   -1.7774   -0.6007 C   0  0  0  0  0  0  0  0  0  0  0  0
   -3.4491   -3.0691   -0.9640 F   0  0  0  0  0  0  0  0  0  0  0  0
   -3.6953   -1.4862    0.6180 F   0  0  0  0  0  0  0  0  0  0  0  0
   -3.5918   -0.9010   -1.5559 F   0  0  0  0  0  0  0  0  0  0  0  0
  1  2  1  0  0  0  0
  1  9  1  0  0  0  0
  2  3  2  0  0  0  0
  2  6  1  0  0  0  0
  3  4  1  0  0  0  0
  3  5  1  0  0  0  0
  4  9  2  0  0  0  0
  5  7  3  0  0  0  0
  6  8  3  0  0  0  0
  9 10  1  0  0  0  0
 10 11  1  0  0  0  0
 10 12  1  0  0  0  0
 10 13  1  0  0  0  0
M  END
