
 OpenBabel02032510173D

 22 21  0  0  0  0  0  0  0  0999 V2000
    1.2308   -0.3159    0.3071 N   0  0  0  0  0  0  0  0  0  0  0  0
   -1.1737    0.1710   -0.2963 N   0  0  0  0  0  0  0  0  0  0  0  0
   -0.3796   -2.0335   -0.0772 N   0  0  0  0  0  0  0  0  0  0  0  0
   -0.1137   -0.7652   -0.0132 C   0  0  0  0  0  0  0  0  0  0  0  0
    2.2384   -1.2662    0.7637 C   0  0  0  0  0  0  0  0  0  0  0  0
    1.6494    1.0610    0.0602 C   0  0  0  0  0  0  0  0  0  0  0  0
   -1.4081    1.3377    0.5337 C   0  0  0  0  0  0  0  0  0  0  0  0
   -2.1195   -0.0734   -1.3731 C   0  0  0  0  0  0  0  0  0  0  0  0
    2.4148   -2.0434   -0.0091 H   0  0  0  0  0  0  0  0  0  0  0  0
    3.2183   -0.7841    0.9635 H   0  0  0  0  0  0  0  0  0  0  0  0
    1.9031   -1.7400    1.7105 H   0  0  0  0  0  0  0  0  0  0  0  0
    2.7366    1.2048    0.2319 H   0  0  0  0  0  0  0  0  0  0  0  0
    1.4464    1.3279   -0.9985 H   0  0  0  0  0  0  0  0  0  0  0  0
    1.1562    1.7814    0.7304 H   0  0  0  0  0  0  0  0  0  0  0  0
   -0.7678    1.3388    1.4367 H   0  0  0  0  0  0  0  0  0  0  0  0
   -1.2676    2.2660   -0.0595 H   0  0  0  0  0  0  0  0  0  0  0  0
   -2.4494    1.3124    0.9196 H   0  0  0  0  0  0  0  0  0  0  0  0
   -2.1146    0.7891   -2.0727 H   0  0  0  0  0  0  0  0  0  0  0  0
   -1.8576   -0.9749   -1.9652 H   0  0  0  0  0  0  0  0  0  0  0  0
   -3.1427   -0.1991   -0.9596 H   0  0  0  0  0  0  0  0  0  0  0  0
    0.3232   -2.7614    0.1009 H   0  0  0  0  0  0  0  0  0  0  0  0
   -1.3283   -2.3690   -0.2954 H   0  0  0  0  0  0  0  0  0  0  0  0
  1  4  1  0  0  0  0
  1  5  1  0  0  0  0
  1  6  1  0  0  0  0
  2  4  1  0  0  0  0
  2  7  1  0  0  0  0
  2  8  1  0  0  0  0
  3  4  2  0  0  0  0
  3 21  1  0  0  0  0
  3 22  1  0  0  0  0
  5  9  1  0  0  0  0
  5 10  1  0  0  0  0
  5 11  1  0  0  0  0
  6 12  1  0  0  0  0
  6 13  1  0  0  0  0
  6 14  1  0  0  0  0
  7 15  1  0  0  0  0
  7 16  1  0  0  0  0
  7 17  1  0  0  0  0
  8 20  1  0  0  0  0
  8 18  1  0  0  0  0
  8 19  1  0  0  0  0
M  END
