
 OpenBabel12072221273D

 18 18  0  0  0  0  0  0  0  0999 V2000
   -0.6969   -1.2841   -0.4715 O   0  0  0  0  0  0  0  0  0  0  0  0
    0.4203   -1.0270    0.8056 S   0  0  0  0  0  0  0  0  0  0  0  0
   -0.3630   -0.2734    1.8911 O   0  0  0  0  0  0  0  0  0  0  0  0
    0.6050   -2.3986    1.4721 O   0  0  0  0  0  0  0  0  0  0  0  0
    1.9931   -0.2408    0.4526 C   0  0  0  0  0  0  0  0  0  0  0  0
    2.1127    1.1525    0.5196 C   0  0  0  0  0  0  0  0  0  0  0  0
    3.3381    1.7665    0.2427 C   0  0  0  0  0  0  0  0  0  0  0  0
    4.4552    0.9918   -0.1047 C   0  0  0  0  0  0  0  0  0  0  0  0
    4.3313   -0.4054   -0.1723 C   0  0  0  0  0  0  0  0  0  0  0  0
    3.1049   -1.0176    0.1050 C   0  0  0  0  0  0  0  0  0  0  0  0
    5.7638    1.6632   -0.3994 C   0  0  0  0  0  0  0  0  0  0  0  0
    5.6411    2.3604   -1.2548 H   0  0  0  0  0  0  0  0  0  0  0  0
    6.5524    0.9250   -0.6585 H   0  0  0  0  0  0  0  0  0  0  0  0
    6.0981    2.2359    0.4912 H   0  0  0  0  0  0  0  0  0  0  0  0
    1.2585    1.7620    0.7855 H   0  0  0  0  0  0  0  0  0  0  0  0
    3.4169    2.8453    0.2985 H   0  0  0  0  0  0  0  0  0  0  0  0
    3.0219   -2.0955    0.0486 H   0  0  0  0  0  0  0  0  0  0  0  0
    5.1808   -1.0217   -0.4391 H   0  0  0  0  0  0  0  0  0  0  0  0
  1  2  1  0  0  0  0
  2  3  2  0  0  0  0
  2  4  2  0  0  0  0
  2  5  1  0  0  0  0
  5  6  1  0  0  0  0
  6  7  2  0  0  0  0
  6 15  1  0  0  0  0
  7  8  1  0  0  0  0
  7 16  1  0  0  0  0
  8  9  2  0  0  0  0
  8 11  1  0  0  0  0
  9 10  1  0  0  0  0
  9 18  1  0  0  0  0
 10  5  2  0  0  0  0
 10 17  1  0  0  0  0
 11 12  1  0  0  0  0
 11 13  1  0  0  0  0
 11 14  1  0  0  0  0
M  END
