
 OpenBabel06142411313D

 19 19  0  0  0  0  0  0  0  0999 V2000
    4.9705   -2.6256   -0.0049 C   0  0  0  0  0  0  0  0  0  0  0  0
    4.8874   -3.8948   -0.0011 O   0  0  0  0  0  0  0  0  0  0  0  0
    6.0455   -1.9492    0.0364 O   0  5  0  0  0  0  0  0  0  0  0  0
    3.6666   -1.8526   -0.0643 C   0  0  0  0  0  0  0  0  0  0  0  0
    2.4343   -2.5353   -0.1123 C   0  0  0  0  0  0  0  0  0  0  0  0
    1.2291   -1.8350   -0.1671 C   0  0  0  0  0  0  0  0  0  0  0  0
    1.2621   -0.4353   -0.1738 C   0  0  0  0  0  0  0  0  0  0  0  0
    2.4598    0.2644   -0.1274 C   0  0  0  0  0  0  0  0  0  0  0  0
    3.6596   -0.4460   -0.0728 C   0  0  0  0  0  0  0  0  0  0  0  0
   -0.0752   -3.8116   -0.2110 C   0  0  0  0  0  0  0  0  0  0  0  0
   -0.0278   -2.3885   -0.2169 O   0  0  0  0  0  0  0  0  0  0  0  0
    0.0904    0.2748   -0.2273 O   0  0  0  0  0  0  0  0  0  0  0  0
    0.4218   -4.2284   -1.0933 H   0  0  0  0  0  0  0  0  0  0  0  0
    2.4691   -3.6213   -0.1046 H   0  0  0  0  0  0  0  0  0  0  0  0
    4.6078    0.0884   -0.0359 H   0  0  0  0  0  0  0  0  0  0  0  0
    2.4656    1.3485   -0.1334 H   0  0  0  0  0  0  0  0  0  0  0  0
   -0.5975   -0.4178   -0.2523 H   0  0  0  0  0  0  0  0  0  0  0  0
    0.3456   -4.2183    0.7147 H   0  0  0  0  0  0  0  0  0  0  0  0
   -1.1277   -4.1084   -0.2537 H   0  0  0  0  0  0  0  0  0  0  0  0
  1  2  2  0  0  0  0
  1  3  1  0  0  0  0
  1  4  1  0  0  0  0
  4  5  2  0  0  0  0
  4  9  1  0  0  0  0
  5  6  1  0  0  0  0
  5 14  1  0  0  0  0
  6  7  2  0  0  0  0
  6 11  1  0  0  0  0
  7  8  1  0  0  0  0
  7 12  1  0  0  0  0
  8  9  2  0  0  0  0
  8 16  1  0  0  0  0
  9 15  1  0  0  0  0
 10 11  1  0  0  0  0
 10 18  1  0  0  0  0
 10 19  1  0  0  0  0
 10 13  1  0  0  0  0
 12 17  1  0  0  0  0
M  CHG  1   3  -1
M  END
