
 OpenBabel06022023153D

155154  0  0  1  0  0  0  0  0999 V2000
    2.0087    0.4020   -0.9437 C   0  0  0  0  0  0  0  0  0  0  0  0
    2.5823   -0.9855   -0.6061 C   0  0  1  0  0  0  0  0  0  0  0  0
    3.1920   -1.6616   -1.8507 C   0  0  0  0  0  0  0  0  0  0  0  0
    2.9939    1.2319   -1.4483 O   0  0  0  0  0  0  0  0  0  0  0  0
    3.4542   -0.9152    0.4720 O   0  0  0  0  0  0  0  0  0  0  0  0
    3.7982   -2.8619   -1.5293 O   0  0  0  0  0  0  0  0  0  0  0  0
    1.5274    0.8291   -0.0365 H   0  0  0  0  0  0  0  0  0  0  0  0
    1.2211    0.2892   -1.7192 H   0  0  0  0  0  0  0  0  0  0  0  0
    1.7293   -1.6136   -0.2685 H   0  0  0  0  0  0  0  0  0  0  0  0
    3.9494   -1.0020   -2.3248 H   0  0  0  0  0  0  0  0  0  0  0  0
    2.3806   -1.8280   -2.5942 H   0  0  0  0  0  0  0  0  0  0  0  0
    3.3743    2.4331   -0.9412 C   0  0  0  0  0  0  0  0  0  0  0  0
    4.7290   -0.4500    0.5200 C   0  0  0  0  0  0  0  0  0  0  0  0
    4.3545   -3.6700   -2.4710 C   0  0  0  0  0  0  0  0  0  0  0  0
    2.8364    2.9013    0.0526 O   0  0  0  0  0  0  0  0  0  0  0  0
    5.3440   -0.1840   -0.5023 O   0  0  0  0  0  0  0  0  0  0  0  0
    4.1809   -3.4457   -3.6619 O   0  0  0  0  0  0  0  0  0  0  0  0
    4.4706    3.1918   -1.6312 C   0  0  0  0  0  0  0  0  0  0  0  0
    5.6670    3.4152   -0.6999 C   0  0  0  0  0  0  0  0  0  0  0  0
    6.8170    4.1003   -1.4470 C   0  0  0  0  0  0  0  0  0  0  0  0
    8.0276    4.3138   -0.5307 C   0  0  0  0  0  0  0  0  0  0  0  0
    9.2007    4.9173   -1.3128 C   0  0  0  0  0  0  0  0  0  0  0  0
   10.4211    5.1257   -0.4094 C   0  0  0  0  0  0  0  0  0  0  0  0
   11.6215    5.6336   -1.2182 C   0  0  0  0  0  0  0  0  0  0  0  0
   12.8498    5.8177   -0.3207 C   0  0  0  0  0  0  0  0  0  0  0  0
   14.0871    6.1965   -1.1420 C   0  0  0  0  0  0  0  0  0  0  0  0
   15.3271    6.3028   -0.2464 C   0  0  0  0  0  0  0  0  0  0  0  0
   16.5766    6.6286   -1.0723 C   0  0  0  0  0  0  0  0  0  0  0  0
   17.8202    6.7050   -0.1794 C   0  0  0  0  0  0  0  0  0  0  0  0
    4.8024    2.6053   -2.5162 H   0  0  0  0  0  0  0  0  0  0  0  0
    4.0770    4.1695   -1.9841 H   0  0  0  0  0  0  0  0  0  0  0  0
    6.0229    2.4324   -0.3254 H   0  0  0  0  0  0  0  0  0  0  0  0
    5.3548    4.0374    0.1676 H   0  0  0  0  0  0  0  0  0  0  0  0
    6.4764    5.0824   -1.8431 H   0  0  0  0  0  0  0  0  0  0  0  0
    7.1185    3.4552   -2.3021 H   0  0  0  0  0  0  0  0  0  0  0  0
    8.3450    3.3337   -0.1094 H   0  0  0  0  0  0  0  0  0  0  0  0
    7.7437    4.9882    0.3069 H   0  0  0  0  0  0  0  0  0  0  0  0
    9.4729    4.2202   -2.1363 H   0  0  0  0  0  0  0  0  0  0  0  0
    8.8992    5.8924   -1.7551 H   0  0  0  0  0  0  0  0  0  0  0  0
   10.6936    4.1543    0.0589 H   0  0  0  0  0  0  0  0  0  0  0  0
   10.1693    5.8523    0.3941 H   0  0  0  0  0  0  0  0  0  0  0  0
   11.3722    6.5999   -1.7091 H   0  0  0  0  0  0  0  0  0  0  0  0
   11.8573    4.8826   -2.0048 H   0  0  0  0  0  0  0  0  0  0  0  0
   15.4831    5.3326    0.2744 H   0  0  0  0  0  0  0  0  0  0  0  0
   15.1663    7.0957    0.5169 H   0  0  0  0  0  0  0  0  0  0  0  0
   16.4322    7.6019   -1.5910 H   0  0  0  0  0  0  0  0  0  0  0  0
   16.7258    5.8345   -1.8368 H   0  0  0  0  0  0  0  0  0  0  0  0
    5.3716   -0.3003    1.8756 C   0  0  0  0  0  0  0  0  0  0  0  0
    6.8770    0.0077    1.8391 C   0  0  0  0  0  0  0  0  0  0  0  0
    7.6712   -1.2037    1.3189 C   0  0  0  0  0  0  0  0  0  0  0  0
    9.1813   -0.9671    1.2341 C   0  0  0  0  0  0  0  0  0  0  0  0
    9.8390   -0.6490    2.5878 C   0  0  0  0  0  0  0  0  0  0  0  0
   11.3777   -0.6975    2.5184 C   0  0  0  0  0  0  0  0  0  0  0  0
   12.0207    0.2249    1.4693 C   0  0  0  0  0  0  0  0  0  0  0  0
   12.6774    2.6354    1.9039 C   0  0  0  0  0  0  0  0  0  0  0  0
   14.1694    2.4437    1.7669 C   0  0  0  0  0  0  0  0  0  0  0  0
   14.5785    2.1422    0.3121 C   0  0  0  0  0  0  0  0  0  0  0  0
   16.1024    2.0648    0.1666 C   0  0  0  0  0  0  0  0  0  0  0  0
   16.4912    1.7933   -1.2959 C   0  0  0  0  0  0  0  0  0  0  0  0
   18.0082    1.6948   -1.5271 C   0  0  0  0  0  0  0  0  0  0  0  0
   18.7431    3.0202   -1.2513 C   0  0  0  0  0  0  0  0  0  0  0  0
   20.2545    2.9489   -1.5170 C   0  0  0  0  0  0  0  0  0  0  0  0
    9.3823   -0.1508    0.5083 H   0  0  0  0  0  0  0  0  0  0  0  0
    9.6218   -1.9019    0.8402 H   0  0  0  0  0  0  0  0  0  0  0  0
    9.5254   -1.4115    3.3341 H   0  0  0  0  0  0  0  0  0  0  0  0
    9.5003    0.3430    2.9504 H   0  0  0  0  0  0  0  0  0  0  0  0
   11.6673   -1.7414    2.2789 H   0  0  0  0  0  0  0  0  0  0  0  0
   11.7926   -0.4598    3.5223 H   0  0  0  0  0  0  0  0  0  0  0  0
   14.5229    1.6536    2.4634 H   0  0  0  0  0  0  0  0  0  0  0  0
   14.6548    3.4007    2.0589 H   0  0  0  0  0  0  0  0  0  0  0  0
   16.0776    2.5923   -1.9503 H   0  0  0  0  0  0  0  0  0  0  0  0
   16.0374    0.8256   -1.6028 H   0  0  0  0  0  0  0  0  0  0  0  0
   18.1478    1.4154   -2.5916 H   0  0  0  0  0  0  0  0  0  0  0  0
   18.4326    0.8844   -0.8950 H   0  0  0  0  0  0  0  0  0  0  0  0
   18.6194    3.2897   -0.1828 H   0  0  0  0  0  0  0  0  0  0  0  0
   18.3024    3.8302   -1.8716 H   0  0  0  0  0  0  0  0  0  0  0  0
    5.1925   -4.8500   -2.0682 C   0  0  0  0  0  0  0  0  0  0  0  0
    6.4662   -4.4087   -1.3321 C   0  0  0  0  0  0  0  0  0  0  0  0
    7.3681   -5.6240   -1.0551 C   0  0  0  0  0  0  0  0  0  0  0  0
    8.6771   -5.2947   -0.3159 C   0  0  0  0  0  0  0  0  0  0  0  0
    9.5949   -4.3304   -1.0860 C   0  0  0  0  0  0  0  0  0  0  0  0
   10.9494   -4.1752   -0.3772 C   0  0  0  0  0  0  0  0  0  0  0  0
   14.3736   -3.0785   -0.8122 C   0  0  0  0  0  0  0  0  0  0  0  0
   14.7646   -3.3845   -2.2343 C   0  0  0  0  0  0  0  0  0  0  0  0
   17.7801   -3.4244   -3.2064 C   0  0  0  0  0  0  0  0  0  0  0  0
   18.9843   -3.2600   -2.2670 C   0  0  0  0  0  0  0  0  0  0  0  0
   19.9009   -2.0841   -2.6385 C   0  0  0  0  0  0  0  0  0  0  0  0
   21.1153   -2.0312   -1.7031 C   0  0  0  0  0  0  0  0  0  0  0  0
   19.3458   -1.1256   -2.5592 H   0  0  0  0  0  0  0  0  0  0  0  0
   20.2517   -2.2125   -3.6861 H   0  0  0  0  0  0  0  0  0  0  0  0
    7.3274   -1.4731    0.2984 H   0  0  0  0  0  0  0  0  0  0  0  0
    7.4812   -2.0775    1.9807 H   0  0  0  0  0  0  0  0  0  0  0  0
    5.2259   -1.2389    2.4536 H   0  0  0  0  0  0  0  0  0  0  0  0
    4.8346    0.5134    2.4080 H   0  0  0  0  0  0  0  0  0  0  0  0
    7.1991    0.2207    2.8800 H   0  0  0  0  0  0  0  0  0  0  0  0
    7.0721    0.9105    1.2222 H   0  0  0  0  0  0  0  0  0  0  0  0
    6.8019   -6.3540   -0.4359 H   0  0  0  0  0  0  0  0  0  0  0  0
    7.6238   -6.1158   -2.0197 H   0  0  0  0  0  0  0  0  0  0  0  0
    5.4921   -5.3998   -2.9887 H   0  0  0  0  0  0  0  0  0  0  0  0
    4.5912   -5.5352   -1.4328 H   0  0  0  0  0  0  0  0  0  0  0  0
    6.1974   -3.9039   -0.3783 H   0  0  0  0  0  0  0  0  0  0  0  0
    7.0107   -3.6895   -1.9802 H   0  0  0  0  0  0  0  0  0  0  0  0
   20.6035    2.7165   -2.9877 C   0  0  0  0  0  0  0  0  0  0  0  0
   20.7086    2.1516   -0.8904 H   0  0  0  0  0  0  0  0  0  0  0  0
   20.7018    3.9207   -1.2144 H   0  0  0  0  0  0  0  0  0  0  0  0
   20.2316    1.7352   -3.3447 H   0  0  0  0  0  0  0  0  0  0  0  0
   21.7073    2.7245   -3.1084 H   0  0  0  0  0  0  0  0  0  0  0  0
   20.1722    3.5239   -3.6167 H   0  0  0  0  0  0  0  0  0  0  0  0
    9.2164   -6.2559   -0.1669 H   0  0  0  0  0  0  0  0  0  0  0  0
    8.4465   -4.8670    0.6846 H   0  0  0  0  0  0  0  0  0  0  0  0
    9.7742   -4.7160   -2.1135 H   0  0  0  0  0  0  0  0  0  0  0  0
    9.1010   -3.3382   -1.1549 H   0  0  0  0  0  0  0  0  0  0  0  0
   19.5811   -4.1972   -2.3224 H   0  0  0  0  0  0  0  0  0  0  0  0
   18.6208   -3.1417   -1.2222 H   0  0  0  0  0  0  0  0  0  0  0  0
   22.0469   -0.8803   -2.0677 C   0  0  0  0  0  0  0  0  0  0  0  0
   21.6838   -2.9842   -1.7748 H   0  0  0  0  0  0  0  0  0  0  0  0
   20.7731   -1.8978   -0.6536 H   0  0  0  0  0  0  0  0  0  0  0  0
   22.4196   -0.9979   -3.1075 H   0  0  0  0  0  0  0  0  0  0  0  0
   22.9157   -0.8704   -1.3764 H   0  0  0  0  0  0  0  0  0  0  0  0
   21.5128    0.0866   -1.9782 H   0  0  0  0  0  0  0  0  0  0  0  0
   13.0552    4.8634    0.2000 H   0  0  0  0  0  0  0  0  0  0  0  0
   12.6439    6.5984    0.4441 H   0  0  0  0  0  0  0  0  0  0  0  0
   13.9108    7.1650   -1.6596 H   0  0  0  0  0  0  0  0  0  0  0  0
   14.2666    5.4083   -1.9068 H   0  0  0  0  0  0  0  0  0  0  0  0
   19.0692    7.0173   -0.9987 C   0  0  0  0  0  0  0  0  0  0  0  0
   17.9671    5.7330    0.3399 H   0  0  0  0  0  0  0  0  0  0  0  0
   17.6832    7.5002    0.5854 H   0  0  0  0  0  0  0  0  0  0  0  0
   19.2421    6.2261   -1.7588 H   0  0  0  0  0  0  0  0  0  0  0  0
   19.9525    7.0632   -0.3275 H   0  0  0  0  0  0  0  0  0  0  0  0
   18.9595    7.9968   -1.5110 H   0  0  0  0  0  0  0  0  0  0  0  0
   16.4982    1.2501    0.8117 H   0  0  0  0  0  0  0  0  0  0  0  0
   16.5305    3.0315    0.5023 H   0  0  0  0  0  0  0  0  0  0  0  0
   14.2041    2.9540   -0.3465 H   0  0  0  0  0  0  0  0  0  0  0  0
   14.1340    1.1919   -0.0428 H   0  0  0  0  0  0  0  0  0  0  0  0
   11.7413    1.6812    1.7487 C   0  0  0  0  0  0  0  0  0  0  0  0
   11.6447   -0.0303    0.4582 H   0  0  0  0  0  0  0  0  0  0  0  0
   13.1060    0.0094    1.4800 H   0  0  0  0  0  0  0  0  0  0  0  0
   12.3308    3.6372    2.1415 H   0  0  0  0  0  0  0  0  0  0  0  0
   10.7033    1.9868    1.8359 H   0  0  0  0  0  0  0  0  0  0  0  0
   11.8241   -3.1196   -1.0673 C   0  0  0  0  0  0  0  0  0  0  0  0
   11.4755   -5.1554   -0.3731 H   0  0  0  0  0  0  0  0  0  0  0  0
   10.7814   -3.8689    0.6780 H   0  0  0  0  0  0  0  0  0  0  0  0
   13.1266   -2.9579   -0.3183 C   0  0  0  0  0  0  0  0  0  0  0  0
   11.2948   -2.1433   -1.0418 H   0  0  0  0  0  0  0  0  0  0  0  0
   11.9609   -3.3989   -2.1269 H   0  0  0  0  0  0  0  0  0  0  0  0
   13.0490   -2.7117    0.7343 H   0  0  0  0  0  0  0  0  0  0  0  0
   15.1948   -2.9294   -0.1153 H   0  0  0  0  0  0  0  0  0  0  0  0
   15.5655   -2.2184   -2.7622 C   0  0  0  0  0  0  0  0  0  0  0  0
   13.9049   -3.5304   -2.9102 H   0  0  0  0  0  0  0  0  0  0  0  0
   15.3186   -4.3372   -2.2190 H   0  0  0  0  0  0  0  0  0  0  0  0
   16.8515   -2.2296   -3.1693 C   0  0  0  0  0  0  0  0  0  0  0  0
   17.2753   -4.3602   -2.9141 H   0  0  0  0  0  0  0  0  0  0  0  0
   18.1345   -3.5668   -4.2496 H   0  0  0  0  0  0  0  0  0  0  0  0
   15.0441   -1.2654   -2.8056 H   0  0  0  0  0  0  0  0  0  0  0  0
   17.2603   -1.2829   -3.5089 H   0  0  0  0  0  0  0  0  0  0  0  0
  1  2  1  0  0  0  0
  1  7  1  0  0  0  0
  1  8  1  0  0  0  0
  2  3  1  0  0  0  0
  2  9  1  1  0  0  0
  3  6  1  0  0  0  0
  3 10  1  0  0  0  0
  3 11  1  0  0  0  0
  4  1  1  0  0  0  0
  4 12  1  0  0  0  0
  5  2  1  0  0  0  0
  5 13  1  0  0  0  0
 12 18  1  0  0  0  0
 13 48  1  0  0  0  0
 14  6  1  0  0  0  0
 15 12  2  0  0  0  0
 16 13  2  0  0  0  0
 17 14  2  0  0  0  0
 18 19  1  0  0  0  0
 18 30  1  0  0  0  0
 18 31  1  0  0  0  0
 19 20  1  0  0  0  0
 19 32  1  0  0  0  0
 19 33  1  0  0  0  0
 20 34  1  0  0  0  0
 20 35  1  0  0  0  0
 21 20  1  0  0  0  0
 21 36  1  0  0  0  0
 21 37  1  0  0  0  0
 22 21  1  0  0  0  0
 22 38  1  0  0  0  0
 22 39  1  0  0  0  0
 23 22  1  0  0  0  0
 23 40  1  0  0  0  0
 23 41  1  0  0  0  0
 24 23  1  0  0  0  0
 24 42  1  0  0  0  0
 24 43  1  0  0  0  0
 25 24  1  0  0  0  0
 25 26  1  0  0  0  0
 25121  1  0  0  0  0
 25122  1  0  0  0  0
 26 27  1  0  0  0  0
 26123  1  0  0  0  0
 26124  1  0  0  0  0
 27 28  1  0  0  0  0
 27 44  1  0  0  0  0
 27 45  1  0  0  0  0
 28 29  1  0  0  0  0
 28 46  1  0  0  0  0
 28 47  1  0  0  0  0
 29125  1  0  0  0  0
 29126  1  0  0  0  0
 29127  1  0  0  0  0
 48 49  1  0  0  0  0
 48 93  1  0  0  0  0
 48 94  1  0  0  0  0
 49 50  1  0  0  0  0
 49 95  1  0  0  0  0
 49 96  1  0  0  0  0
 50 91  1  0  0  0  0
 50 92  1  0  0  0  0
 51 50  1  0  0  0  0
 51 63  1  0  0  0  0
 51 64  1  0  0  0  0
 52 51  1  0  0  0  0
 52 65  1  0  0  0  0
 52 66  1  0  0  0  0
 53 52  1  0  0  0  0
 53 67  1  0  0  0  0
 53 68  1  0  0  0  0
 54 53  1  0  0  0  0
 54135  1  0  0  0  0
 54136  1  0  0  0  0
 54137  1  0  0  0  0
 55135  2  0  0  0  0
 55138  1  0  0  0  0
 56 55  1  0  0  0  0
 56 69  1  0  0  0  0
 56 70  1  0  0  0  0
 57 56  1  0  0  0  0
 57133  1  0  0  0  0
 57134  1  0  0  0  0
 58 57  1  0  0  0  0
 58131  1  0  0  0  0
 58132  1  0  0  0  0
 59 58  1  0  0  0  0
 59 71  1  0  0  0  0
 59 72  1  0  0  0  0
 60 59  1  0  0  0  0
 60 73  1  0  0  0  0
 60 74  1  0  0  0  0
 61 60  1  0  0  0  0
 61 75  1  0  0  0  0
 61 76  1  0  0  0  0
 62 61  1  0  0  0  0
 62103  1  0  0  0  0
 62104  1  0  0  0  0
 62105  1  0  0  0  0
 77 14  1  0  0  0  0
 77 78  1  0  0  0  0
 77 99  1  0  0  0  0
 77100  1  0  0  0  0
 78 79  1  0  0  0  0
 78101  1  0  0  0  0
 78102  1  0  0  0  0
 79 80  1  0  0  0  0
 79 97  1  0  0  0  0
 79 98  1  0  0  0  0
 80 81  1  0  0  0  0
 80109  1  0  0  0  0
 80110  1  0  0  0  0
 81 82  1  0  0  0  0
 81111  1  0  0  0  0
 81112  1  0  0  0  0
 82140  1  0  0  0  0
 82141  1  0  0  0  0
 82142  1  0  0  0  0
 83 84  1  0  0  0  0
 83147  1  0  0  0  0
 84148  1  0  0  0  0
 84149  1  0  0  0  0
 84150  1  0  0  0  0
 85 86  1  0  0  0  0
 85151  1  0  0  0  0
 85152  1  0  0  0  0
 85153  1  0  0  0  0
 86 87  1  0  0  0  0
 86113  1  0  0  0  0
 86114  1  0  0  0  0
 87 88  1  0  0  0  0
 87 89  1  0  0  0  0
 87 90  1  0  0  0  0
 88115  1  0  0  0  0
 88116  1  0  0  0  0
 88117  1  0  0  0  0
103106  1  0  0  0  0
103107  1  0  0  0  0
103108  1  0  0  0  0
115118  1  0  0  0  0
115119  1  0  0  0  0
115120  1  0  0  0  0
125128  1  0  0  0  0
125129  1  0  0  0  0
125130  1  0  0  0  0
135139  1  0  0  0  0
140143  1  0  0  0  0
140144  1  0  0  0  0
140145  1  0  0  0  0
143 83  2  0  0  0  0
143146  1  0  0  0  0
148151  2  0  0  0  0
148154  1  0  0  0  0
151155  1  0  0  0  0
M  END
