
 OpenBabel05252314393D

  8  7  0  0  0  0  0  0  0  0999 V2000
   -1.3325    1.0322   -1.3157 Cl  0  0  0  0  0  0  0  0  0  0  0  0
   -1.3327    0.6229    1.5518 Cl  0  0  0  0  0  0  0  0  0  0  0  0
   -1.3322   -1.6557   -0.2364 Cl  0  0  0  0  0  0  0  0  0  0  0  0
    1.2963    1.2866    0.1837 F   0  0  0  0  0  0  0  0  0  0  0  0
    1.2966   -0.8021    1.0223 F   0  0  0  0  0  0  0  0  0  0  0  0
    1.2967   -0.4840   -1.2058 F   0  0  0  0  0  0  0  0  0  0  0  0
   -0.7122   -0.0001   -0.0000 C   0  0  0  0  0  0  0  0  0  0  0  0
    0.8201    0.0001    0.0001 C   0  0  0  0  0  0  0  0  0  0  0  0
  1  7  1  0  0  0  0
  2  7  1  0  0  0  0
  3  7  1  0  0  0  0
  4  8  1  0  0  0  0
  5  8  1  0  0  0  0
  6  8  1  0  0  0  0
  7  8  1  0  0  0  0
M  END
