  1,10-DIBROMODECANE.mol	4101-68-2
  NIST    08031215093D 1   1.00000 -5536.54967
Copyright by the U.S. Sec. Commerce on behalf of U.S.A. All rights reserved.
 32 31  0  0  0  0  0  0  0  0999 V2000
   51.9654   10.0893   -0.0001 C    0  0  0  0  0  0  0  0  0  0  0  0
   53.2836    9.3029    0.0001 C    0  0  0  0  0  0  0  0  0  0  0  0
   52.1808   11.6117    0.0001 C    0  0  0  0  0  0  0  0  0  0  0  0
   53.0854    7.7819   -0.0001 C    0  0  0  0  0  0  0  0  0  0  0  0
   54.4030    6.9955    0.0001 C    0  0  0  0  0  0  0  0  0  0  0  0
   54.2048    5.4745   -0.0001 C    0  0  0  0  0  0  0  0  0  0  0  0
   55.5230    4.6881    0.0001 C    0  0  0  0  0  0  0  0  0  0  0  0
   55.3076    3.1656   -0.0001 C    0  0  0  0  0  0  0  0  0  0  0  0
   56.6279    2.4104    0.0001 C    0  0  0  0  0  0  0  0  0  0  0  0
   50.8606   12.3670   -0.0001 C    0  0  0  0  0  0  0  0  0  0  0  0
   51.1442   14.3314    0.0002 Br   0  0  0  0  0  0  0  0  0  0  0  0
   56.3442    0.4460   -0.0001 Br   0  0  0  0  0  0  0  0  0  0  0  0
   51.3707    9.8028   -0.8797 H    0  0  0  0  0  0  0  0  0  0  0  0
   51.3703    9.8026    0.8792 H    0  0  0  0  0  0  0  0  0  0  0  0
   53.8778    9.5927    0.8789 H    0  0  0  0  0  0  0  0  0  0  0  0
   53.8782    9.5929   -0.8784 H    0  0  0  0  0  0  0  0  0  0  0  0
   52.7655   11.9068    0.8800 H    0  0  0  0  0  0  0  0  0  0  0  0
   52.7659   11.9070   -0.8795 H    0  0  0  0  0  0  0  0  0  0  0  0
   52.4901    7.4930   -0.8789 H    0  0  0  0  0  0  0  0  0  0  0  0
   52.4897    7.4928    0.8784 H    0  0  0  0  0  0  0  0  0  0  0  0
   54.9983    7.2844    0.8790 H    0  0  0  0  0  0  0  0  0  0  0  0
   54.9987    7.2845   -0.8784 H    0  0  0  0  0  0  0  0  0  0  0  0
   53.6106    5.1847   -0.8789 H    0  0  0  0  0  0  0  0  0  0  0  0
   53.6102    5.1845    0.8784 H    0  0  0  0  0  0  0  0  0  0  0  0
   56.1177    4.9746    0.8798 H    0  0  0  0  0  0  0  0  0  0  0  0
   56.1181    4.9748   -0.8792 H    0  0  0  0  0  0  0  0  0  0  0  0
   54.7230    2.8706   -0.8800 H    0  0  0  0  0  0  0  0  0  0  0  0
   54.7226    2.8704    0.8795 H    0  0  0  0  0  0  0  0  0  0  0  0
   57.2244    2.6117    0.8910 H    0  0  0  0  0  0  0  0  0  0  0  0
   57.2248    2.6118   -0.8904 H    0  0  0  0  0  0  0  0  0  0  0  0
   50.2640   12.1657   -0.8910 H    0  0  0  0  0  0  0  0  0  0  0  0
   50.2636   12.1655    0.8904 H    0  0  0  0  0  0  0  0  0  0  0  0
  1  2  1  0
  1  3  1  0
  2  4  1  0
  3 10  1  0
  4  5  1  0
  5  6  1  0
  6  7  1  0
  7  8  1  0
  8  9  1  0
  9 12  1  0
 10 11  1  0
  1 13  1  0
  1 14  1  0
  2 15  1  0
  2 16  1  0
  3 17  1  0
  3 18  1  0
  4 19  1  0
  4 20  1  0
  5 21  1  0
  5 22  1  0
  6 23  1  0
  6 24  1  0
  7 25  1  0
  7 26  1  0
  8 27  1  0
  8 28  1  0
  9 29  1  0
  9 30  1  0
 10 31  1  0
 10 32  1  0
M  END
