
 OpenBabel05242317093D

 16 15  0  0  1  0  0  0  0  0999 V2000
   -0.1484    1.6593    0.5242 O   0  0  0  0  0  0  0  0  0  0  0  0
    2.4326    0.5348    0.5083 O   0  0  0  0  0  0  0  0  0  0  0  0
    0.0838    0.3565    0.0503 C   0  0  2  0  0  0  0  0  0  0  0  0
   -1.1665   -0.5055    0.2912 C   0  0  0  0  0  0  0  0  0  0  0  0
    1.2983   -0.2449    0.7676 C   0  0  0  0  0  0  0  0  0  0  0  0
   -2.3868    0.0406   -0.4487 C   0  0  0  0  0  0  0  0  0  0  0  0
    0.2812    0.3710   -1.0485 H   0  0  0  0  0  0  0  0  0  0  0  0
   -1.3921   -0.5459    1.3795 H   0  0  0  0  0  0  0  0  0  0  0  0
   -0.9759   -1.5407   -0.0679 H   0  0  0  0  0  0  0  0  0  0  0  0
    1.1028   -0.2706    1.8636 H   0  0  0  0  0  0  0  0  0  0  0  0
    1.4677   -1.2788    0.3910 H   0  0  0  0  0  0  0  0  0  0  0  0
   -2.6322    1.0650   -0.0970 H   0  0  0  0  0  0  0  0  0  0  0  0
   -2.1949    0.0663   -1.5425 H   0  0  0  0  0  0  0  0  0  0  0  0
   -3.2616   -0.6159   -0.2571 H   0  0  0  0  0  0  0  0  0  0  0  0
    0.4164    2.2709   -0.0168 H   0  0  0  0  0  0  0  0  0  0  0  0
    3.1809    0.1032    0.9968 H   0  0  0  0  0  0  0  0  0  0  0  0
  1  3  1  0  0  0  0
  1 15  1  0  0  0  0
  2  5  1  0  0  0  0
  2 16  1  0  0  0  0
  3  4  1  0  0  0  0
  3  5  1  0  0  0  0
  3  7  1  6  0  0  0
  4  6  1  0  0  0  0
  4  8  1  0  0  0  0
  4  9  1  0  0  0  0
  5 10  1  0  0  0  0
  5 11  1  0  0  0  0
  6 12  1  0  0  0  0
  6 13  1  0  0  0  0
  6 14  1  0  0  0  0
M  END
