
 OpenBabel05302315573D

 21 22  0  0  1  0  0  0  0  0999 V2000
    2.8086   -4.0689    0.6033 O   0  0  0  0  0  0  0  0  0  0  0  0
    0.4431   -1.4676   -0.0840 O   0  0  0  0  0  0  0  0  0  0  0  0
    2.3006   -2.9333   -0.0387 C   0  0  2  0  0  0  0  0  0  0  0  0
    3.1791   -2.8148    1.1479 C   0  0  0  0  0  0  0  0  0  0  0  0
    0.8007   -2.7723    0.1886 C   0  0  0  0  0  0  0  0  0  0  0  0
   -0.8131   -0.9558   -0.0148 C   0  0  0  0  0  0  0  0  0  0  0  0
   -0.9956    0.3989   -0.3243 C   0  0  0  0  0  0  0  0  0  0  0  0
   -1.9327   -1.7315    0.3541 C   0  0  0  0  0  0  0  0  0  0  0  0
   -2.2685    0.9750   -0.2685 C   0  0  0  0  0  0  0  0  0  0  0  0
   -3.2040   -1.1510    0.4085 C   0  0  0  0  0  0  0  0  0  0  0  0
   -3.3719    0.2006    0.0976 C   0  0  0  0  0  0  0  0  0  0  0  0
    2.7588   -2.7878   -1.0394 H   0  0  0  0  0  0  0  0  0  0  0  0
    4.2676   -2.6826    0.9774 H   0  0  0  0  0  0  0  0  0  0  0  0
    2.7289   -2.7426    2.1603 H   0  0  0  0  0  0  0  0  0  0  0  0
    0.2670   -3.4604   -0.5020 H   0  0  0  0  0  0  0  0  0  0  0  0
    0.5242   -3.0263    1.2366 H   0  0  0  0  0  0  0  0  0  0  0  0
   -0.1469    1.0080   -0.6092 H   0  0  0  0  0  0  0  0  0  0  0  0
   -1.8324   -2.7800    0.5998 H   0  0  0  0  0  0  0  0  0  0  0  0
   -2.3990    2.0222   -0.5093 H   0  0  0  0  0  0  0  0  0  0  0  0
   -4.0599   -1.7499    0.6920 H   0  0  0  0  0  0  0  0  0  0  0  0
   -4.3567    0.6477    0.1405 H   0  0  0  0  0  0  0  0  0  0  0  0
  1  3  1  0  0  0  0
  1  4  1  0  0  0  0
  2  5  1  0  0  0  0
  2  6  1  0  0  0  0
  3  4  1  0  0  0  0
  3  5  1  0  0  0  0
  3 12  1  6  0  0  0
  4 13  1  0  0  0  0
  4 14  1  0  0  0  0
  5 15  1  0  0  0  0
  5 16  1  0  0  0  0
  6  7  2  0  0  0  0
  6  8  1  0  0  0  0
  7  9  1  0  0  0  0
  7 17  1  0  0  0  0
  8 10  2  0  0  0  0
  8 18  1  0  0  0  0
  9 11  2  0  0  0  0
  9 19  1  0  0  0  0
 10 11  1  0  0  0  0
 10 20  1  0  0  0  0
 11 21  1  0  0  0  0
M  END
