
 OpenBabel05252314463D

 22 21  0  0  0  0  0  0  0  0999 V2000
    1.7801    0.3206    0.0038 O   0  0  0  0  0  0  0  0  0  0  0  0
   -1.7801   -0.3206    0.0038 O   0  0  0  0  0  0  0  0  0  0  0  0
    0.6057   -0.4621    0.0039 C   0  0  0  0  0  0  0  0  0  0  0  0
   -0.6056    0.4621    0.0039 C   0  0  0  0  0  0  0  0  0  0  0  0
    2.9087   -0.5265    0.0043 C   0  0  0  0  0  0  0  0  0  0  0  0
   -2.9087    0.5265    0.0043 C   0  0  0  0  0  0  0  0  0  0  0  0
    4.1677    0.3274    0.0037 C   0  0  0  0  0  0  0  0  0  0  0  0
   -4.1677   -0.3273    0.0037 C   0  0  0  0  0  0  0  0  0  0  0  0
    0.5542   -1.0960   -0.9114 H   0  0  0  0  0  0  0  0  0  0  0  0
    0.5542   -1.0959    0.9192 H   0  0  0  0  0  0  0  0  0  0  0  0
   -0.5542    1.0960   -0.9114 H   0  0  0  0  0  0  0  0  0  0  0  0
   -0.5542    1.0960    0.9192 H   0  0  0  0  0  0  0  0  0  0  0  0
    2.9284   -1.1606    0.9200 H   0  0  0  0  0  0  0  0  0  0  0  0
    2.9284   -1.1618   -0.9106 H   0  0  0  0  0  0  0  0  0  0  0  0
   -2.9284    1.1606    0.9200 H   0  0  0  0  0  0  0  0  0  0  0  0
   -2.9284    1.1618   -0.9106 H   0  0  0  0  0  0  0  0  0  0  0  0
    5.0657   -0.3261    0.0041 H   0  0  0  0  0  0  0  0  0  0  0  0
    4.1909    0.9706   -0.9016 H   0  0  0  0  0  0  0  0  0  0  0  0
    4.1910    0.9718    0.9081 H   0  0  0  0  0  0  0  0  0  0  0  0
   -5.0656    0.3261    0.0041 H   0  0  0  0  0  0  0  0  0  0  0  0
   -4.1909   -0.9706   -0.9016 H   0  0  0  0  0  0  0  0  0  0  0  0
   -4.1910   -0.9718    0.9081 H   0  0  0  0  0  0  0  0  0  0  0  0
  1  3  1  0  0  0  0
  1  5  1  0  0  0  0
  2  4  1  0  0  0  0
  2  6  1  0  0  0  0
  3  4  1  0  0  0  0
  3  9  1  0  0  0  0
  3 10  1  0  0  0  0
  4 11  1  0  0  0  0
  4 12  1  0  0  0  0
  5  7  1  0  0  0  0
  5 13  1  0  0  0  0
  5 14  1  0  0  0  0
  6  8  1  0  0  0  0
  6 15  1  0  0  0  0
  6 16  1  0  0  0  0
  7 17  1  0  0  0  0
  7 18  1  0  0  0  0
  7 19  1  0  0  0  0
  8 20  1  0  0  0  0
  8 21  1  0  0  0  0
  8 22  1  0  0  0  0
M  END
