
 OpenBabel05252314533D

 15 14  0  0  0  0  0  0  0  0999 V2000
    2.4570    0.3422    0.0016 N   0  0  0  0  0  0  0  0  0  0  0  0
   -2.4616    0.3311   -0.0004 N   0  0  0  0  0  0  0  0  0  0  0  0
    0.0058    0.3586    0.0017 C   0  0  0  0  0  0  0  0  0  0  0  0
    1.2689   -0.5053   -0.0105 C   0  0  0  0  0  0  0  0  0  0  0  0
   -1.2629   -0.5031    0.0061 C   0  0  0  0  0  0  0  0  0  0  0  0
    0.0149    1.0030    0.9078 H   0  0  0  0  0  0  0  0  0  0  0  0
    0.0019    1.0065   -0.9018 H   0  0  0  0  0  0  0  0  0  0  0  0
    1.2771   -1.1498   -0.9183 H   0  0  0  0  0  0  0  0  0  0  0  0
    1.2815   -1.1566    0.8908 H   0  0  0  0  0  0  0  0  0  0  0  0
   -1.2769   -1.1489    0.9110 H   0  0  0  0  0  0  0  0  0  0  0  0
   -1.2766   -1.1584   -0.8918 H   0  0  0  0  0  0  0  0  0  0  0  0
    2.4696    0.9351   -0.8605 H   0  0  0  0  0  0  0  0  0  0  0  0
    3.3040   -0.2708   -0.0174 H   0  0  0  0  0  0  0  0  0  0  0  0
   -2.4675    0.9292   -0.8591 H   0  0  0  0  0  0  0  0  0  0  0  0
   -2.4658    0.9479    0.8446 H   0  0  0  0  0  0  0  0  0  0  0  0
  1  4  1  0  0  0  0
  1 12  1  0  0  0  0
  1 13  1  0  0  0  0
  2  5  1  0  0  0  0
  2 14  1  0  0  0  0
  2 15  1  0  0  0  0
  3  4  1  0  0  0  0
  3  5  1  0  0  0  0
  3  6  1  0  0  0  0
  3  7  1  0  0  0  0
  4  8  1  0  0  0  0
  4  9  1  0  0  0  0
  5 10  1  0  0  0  0
  5 11  1  0  0  0  0
M  END
