
 OpenBabel05252314503D

 14 13  0  0  0  0  0  0  0  0999 V2000
   -0.0208    1.1705    0.2839 O   0  0  0  0  0  0  0  0  0  0  0  0
    1.1754   -0.6919   -0.0947 N   0  0  0  0  0  0  0  0  0  0  0  0
   -1.1813   -0.7061   -0.0978 N   0  0  0  0  0  0  0  0  0  0  0  0
   -0.0082   -0.0295    0.0399 C   0  0  0  0  0  0  0  0  0  0  0  0
    2.4702   -0.0536    0.0353 C   0  0  0  0  0  0  0  0  0  0  0  0
   -2.4660   -0.0541    0.0346 C   0  0  0  0  0  0  0  0  0  0  0  0
    1.1661   -1.7026   -0.3002 H   0  0  0  0  0  0  0  0  0  0  0  0
   -1.1661   -1.7168   -0.3034 H   0  0  0  0  0  0  0  0  0  0  0  0
    3.0367   -0.1769   -0.9113 H   0  0  0  0  0  0  0  0  0  0  0  0
    3.0366   -0.5368    0.8586 H   0  0  0  0  0  0  0  0  0  0  0  0
    2.3898    1.0316    0.2559 H   0  0  0  0  0  0  0  0  0  0  0  0
   -2.5658    0.3854    1.0499 H   0  0  0  0  0  0  0  0  0  0  0  0
   -3.2823   -0.7922   -0.1156 H   0  0  0  0  0  0  0  0  0  0  0  0
   -2.5656    0.7471   -0.7283 H   0  0  0  0  0  0  0  0  0  0  0  0
  1  4  2  0  0  0  0
  2  4  1  0  0  0  0
  2  5  1  0  0  0  0
  2  7  1  0  0  0  0
  3  4  1  0  0  0  0
  3  6  1  0  0  0  0
  3  8  1  0  0  0  0
  5  9  1  0  0  0  0
  5 10  1  0  0  0  0
  5 11  1  0  0  0  0
  6 12  1  0  0  0  0
  6 13  1  0  0  0  0
  6 14  1  0  0  0  0
M  END
