
 OpenBabel09102110083D

 15 14  0  0  0  0  0  0  0  0999 V2000
   -3.7956    1.3467   -0.1386 C   0  0  0  0  0  0  0  0  0  0  0  0
   -2.7017    0.2755   -0.1049 C   0  0  0  0  0  0  0  0  0  0  0  0
   -1.3070    0.9086   -0.1026 C   0  0  0  0  0  0  0  0  0  0  0  0
   -2.8020   -0.3847   -0.9950 H   0  0  0  0  0  0  0  0  0  0  0  0
   -2.8268   -0.3413    0.8125 H   0  0  0  0  0  0  0  0  0  0  0  0
   -5.1143    0.7235   -0.1132 N   0  0  0  0  0  0  0  0  0  0  0  0
   -3.6925    1.9683   -1.0556 H   0  0  0  0  0  0  0  0  0  0  0  0
   -3.6912    2.0051    0.7513 H   0  0  0  0  0  0  0  0  0  0  0  0
   -5.2467    0.1613   -0.9848 H   0  0  0  0  0  0  0  0  0  0  0  0
   -5.8380    1.4774   -0.1058 H   0  0  0  0  0  0  0  0  0  0  0  0
   -0.2809   -0.1281   -0.0713 N   0  0  0  0  0  0  0  0  0  0  0  0
   -1.1933    1.5719    0.7835 H   0  0  0  0  0  0  0  0  0  0  0  0
   -1.1773    1.5188   -1.0231 H   0  0  0  0  0  0  0  0  0  0  0  0
   -0.3612   -0.6646    0.8230 H   0  0  0  0  0  0  0  0  0  0  0  0
    0.6569    0.3337   -0.0811 H   0  0  0  0  0  0  0  0  0  0  0  0
  1  2  1  0  0  0  0
  1  6  1  0  0  0  0
  1  7  1  0  0  0  0
  1  8  1  0  0  0  0
  2  3  1  0  0  0  0
  2  4  1  0  0  0  0
  2  5  1  0  0  0  0
  3 11  1  0  0  0  0
  3 12  1  0  0  0  0
  3 13  1  0  0  0  0
  6  9  1  0  0  0  0
  6 10  1  0  0  0  0
 11 14  1  0  0  0  0
 11 15  1  0  0  0  0
M  END
