
 OpenBabel04242410143D

 19 18  0  0  0  0  0  0  0  0999 V2000
    4.9857    4.6160    2.9490 O   0  0  0  0  0  0  0  0  0  0  0  0
    5.2824    3.8515    4.1090 C   0  0  0  0  0  0  0  0  0  0  0  0
    4.2246    2.7686    4.2692 C   0  0  0  0  0  0  0  0  0  0  0  0
    4.4829    1.9053    5.5022 C   0  0  0  0  0  0  0  0  0  0  0  0
    3.4177    0.8217    5.6557 C   0  0  0  0  0  0  0  0  0  0  0  0
    3.6681   -0.0436    6.8829 C   0  0  0  0  0  0  0  0  0  0  0  0
    2.6469   -1.0274    6.9679 O   0  0  0  0  0  0  0  0  0  0  0  0
    5.6747    5.2976    2.8714 H   0  0  0  0  0  0  0  0  0  0  0  0
    6.2774    3.4109    3.9906 H   0  0  0  0  0  0  0  0  0  0  0  0
    5.2899    4.5212    4.9749 H   0  0  0  0  0  0  0  0  0  0  0  0
    3.2338    3.2356    4.3334 H   0  0  0  0  0  0  0  0  0  0  0  0
    4.2038    2.1451    3.3666 H   0  0  0  0  0  0  0  0  0  0  0  0
    5.4725    1.4388    5.4231 H   0  0  0  0  0  0  0  0  0  0  0  0
    4.4945    2.5383    6.3978 H   0  0  0  0  0  0  0  0  0  0  0  0
    3.3917    0.1854    4.7622 H   0  0  0  0  0  0  0  0  0  0  0  0
    2.4216    1.2759    5.7290 H   0  0  0  0  0  0  0  0  0  0  0  0
    3.6479    0.5592    7.7964 H   0  0  0  0  0  0  0  0  0  0  0  0
    4.6355   -0.5510    6.8121 H   0  0  0  0  0  0  0  0  0  0  0  0
    2.8311   -1.5637    7.7578 H   0  0  0  0  0  0  0  0  0  0  0  0
  1  2  1  0  0  0  0
  1  8  1  0  0  0  0
  2  3  1  0  0  0  0
  2  9  1  0  0  0  0
  2 10  1  0  0  0  0
  3  4  1  0  0  0  0
  3 11  1  0  0  0  0
  3 12  1  0  0  0  0
  4  5  1  0  0  0  0
  4 13  1  0  0  0  0
  4 14  1  0  0  0  0
  5  6  1  0  0  0  0
  5 15  1  0  0  0  0
  5 16  1  0  0  0  0
  6  7  1  0  0  0  0
  6 17  1  0  0  0  0
  6 18  1  0  0  0  0
  7 19  1  0  0  0  0
M  END
