
 OpenBabel11152117563D

 18 19  0  0  0  0  0  0  0  0999 V2000
    5.6930    0.5175    1.9368 C   0  0  0  0  0  0  0  0  0  0  0  0
    4.5628    0.4515    1.0900 C   0  0  0  0  0  0  0  0  0  0  0  0
    6.8410    1.1976    1.5137 C   0  0  0  0  0  0  0  0  0  0  0  0
    5.7215   -0.2325    3.5313 Cl  0  0  0  0  0  0  0  0  0  0  0  0
    3.3860   -0.2216    1.4734 C   0  0  0  0  0  0  0  0  0  0  0  0
    4.6116    1.0801   -0.1830 C   0  0  0  0  0  0  0  0  0  0  0  0
    6.8808    1.8125    0.2616 C   0  0  0  0  0  0  0  0  0  0  0  0
    2.2857   -0.2687    0.6132 C   0  0  0  0  0  0  0  0  0  0  0  0
    3.4975    1.0234   -1.0351 C   0  0  0  0  0  0  0  0  0  0  0  0
    5.7732    1.7558   -0.5849 C   0  0  0  0  0  0  0  0  0  0  0  0
    2.3410    0.3511   -0.6359 C   0  0  0  0  0  0  0  0  0  0  0  0
    7.7090    1.2509    2.1586 H   0  0  0  0  0  0  0  0  0  0  0  0
    3.3052   -0.7139    2.4332 H   0  0  0  0  0  0  0  0  0  0  0  0
    7.7744    2.3353   -0.0541 H   0  0  0  0  0  0  0  0  0  0  0  0
    1.3859   -0.7884    0.9166 H   0  0  0  0  0  0  0  0  0  0  0  0
    3.5213    1.4985   -2.0087 H   0  0  0  0  0  0  0  0  0  0  0  0
    5.8246    2.2398   -1.5531 H   0  0  0  0  0  0  0  0  0  0  0  0
    1.4848    0.3104   -1.2969 H   0  0  0  0  0  0  0  0  0  0  0  0
  1  4  1  0  0  0  0
  1  3  2  0  0  0  0
  2  1  1  0  0  0  0
  2  6  2  0  0  0  0
  3  7  1  0  0  0  0
  3 12  1  0  0  0  0
  5  2  1  0  0  0  0
  5 13  1  0  0  0  0
  6  9  1  0  0  0  0
  7 10  2  0  0  0  0
  7 14  1  0  0  0  0
  8  5  2  0  0  0  0
  8 15  1  0  0  0  0
  9 16  1  0  0  0  0
 10  6  1  0  0  0  0
 10 17  1  0  0  0  0
 11  8  1  0  0  0  0
 11  9  2  0  0  0  0
 11 18  1  0  0  0  0
M  END
