
 OpenBabel12021909343D

 31 30  0  0  0  0  0  0  0  0999 V2000
    4.2389    2.2151    3.5655 C   0  0  0  0  0  0  0  0  0  0  0  0
    2.8988    2.7925    3.0945 C   0  0  0  0  0  0  0  0  0  0  0  0
    4.4215    2.4093    5.0755 C   0  0  0  0  0  0  0  0  0  0  0  0
    2.7169    2.5982    1.5848 C   0  0  0  0  0  0  0  0  0  0  0  0
    1.3842    3.1717    1.1121 C   0  0  0  0  0  0  0  0  0  0  0  0
    7.2847    1.4498    7.5277 C   0  0  0  0  0  0  0  0  0  0  0  0
    5.9443    2.0265    7.0565 C   0  0  0  0  0  0  0  0  0  0  0  0
    7.4665    1.6458    9.0372 C   0  0  0  0  0  0  0  0  0  0  0  0
    5.7618    1.8322    5.5465 C   0  0  0  0  0  0  0  0  0  0  0  0
    9.0316   -0.0962    9.3704 O   0  0  0  0  0  0  0  0  0  0  0  0
    8.7813    1.0919    9.4992 C   0  0  0  0  0  0  0  0  0  0  0  0
    4.2739    1.1287    3.3284 H   0  0  0  0  0  0  0  0  0  0  0  0
    5.0678    2.7257    3.0271 H   0  0  0  0  0  0  0  0  0  0  0  0
    2.8637    3.8789    3.3314 H   0  0  0  0  0  0  0  0  0  0  0  0
    2.0697    2.2819    3.6326 H   0  0  0  0  0  0  0  0  0  0  0  0
    3.5927    1.8986    5.6139 H   0  0  0  0  0  0  0  0  0  0  0  0
    4.3864    3.4957    5.3126 H   0  0  0  0  0  0  0  0  0  0  0  0
    3.5406    3.1093    1.0402 H   0  0  0  0  0  0  0  0  0  0  0  0
    2.7471    1.5137    1.3412 H   0  0  0  0  0  0  0  0  0  0  0  0
    1.3360    4.2612    1.3237 H   0  0  0  0  0  0  0  0  0  0  0  0
    1.2797    3.0172    0.0175 H   0  0  0  0  0  0  0  0  0  0  0  0
    0.5408    2.6624    1.6253 H   0  0  0  0  0  0  0  0  0  0  0  0
    8.1142    1.9607    6.9902 H   0  0  0  0  0  0  0  0  0  0  0  0
    7.3190    0.3635    7.2894 H   0  0  0  0  0  0  0  0  0  0  0  0
    5.1157    1.5157    7.5950 H   0  0  0  0  0  0  0  0  0  0  0  0
    5.9088    3.1130    7.2934 H   0  0  0  0  0  0  0  0  0  0  0  0
    6.6469    1.1355    9.5881 H   0  0  0  0  0  0  0  0  0  0  0  0
    7.4335    2.7312    9.2750 H   0  0  0  0  0  0  0  0  0  0  0  0
    6.5905    2.3430    5.0081 H   0  0  0  0  0  0  0  0  0  0  0  0
    5.7970    0.7458    5.3095 H   0  0  0  0  0  0  0  0  0  0  0  0
    9.5130    1.7474    9.9603 H   0  0  0  0  0  0  0  0  0  0  0  0
  1  2  1  0  0  0  0
  1  3  1  0  0  0  0
  1 12  1  0  0  0  0
  1 13  1  0  0  0  0
  2  4  1  0  0  0  0
  2 14  1  0  0  0  0
  2 15  1  0  0  0  0
  3  9  1  0  0  0  0
  3 16  1  0  0  0  0
  3 17  1  0  0  0  0
  4  5  1  0  0  0  0
  4 18  1  0  0  0  0
  4 19  1  0  0  0  0
  5 20  1  0  0  0  0
  5 21  1  0  0  0  0
  5 22  1  0  0  0  0
  6  7  1  0  0  0  0
  6  8  1  0  0  0  0
  6 23  1  0  0  0  0
  6 24  1  0  0  0  0
  7  9  1  0  0  0  0
  7 25  1  0  0  0  0
  7 26  1  0  0  0  0
  8 11  1  0  0  0  0
  8 27  1  0  0  0  0
  8 28  1  0  0  0  0
  9 29  1  0  0  0  0
  9 30  1  0  0  0  0
 10 11  2  0  0  0  0
 11 31  1  0  0  0  0
M  END
