
 OpenBabel06032311153D

 21 20  0  0  0  0  0  0  0  0999 V2000
    3.3700    0.8066    1.3013 C   0  0  0  0  0  0  0  0  0  0  0  0
    4.5573    1.7689    1.4251 C   0  0  0  0  0  0  0  0  0  0  0  0
    5.8793    1.0008    1.5323 C   0  0  0  0  0  0  0  0  0  0  0  0
    2.0481    1.5756    1.1941 C   0  0  0  0  0  0  0  0  0  0  0  0
    7.0466    1.9420    1.6539 C   0  0  0  0  0  0  0  0  0  0  0  0
    0.8639    0.6213    1.0707 C   0  0  0  0  0  0  0  0  0  0  0  0
    8.2936    1.4771    1.7594 C   0  0  0  0  0  0  0  0  0  0  0  0
    3.3384    0.1457    2.1957 H   0  0  0  0  0  0  0  0  0  0  0  0
    3.5019    0.1757    0.3945 H   0  0  0  0  0  0  0  0  0  0  0  0
    4.4256    2.3997    2.3323 H   0  0  0  0  0  0  0  0  0  0  0  0
    4.5892    2.4297    0.5304 H   0  0  0  0  0  0  0  0  0  0  0  0
    6.0155    0.3719    0.6253 H   0  0  0  0  0  0  0  0  0  0  0  0
    5.8519    0.3418    2.4278 H   0  0  0  0  0  0  0  0  0  0  0  0
    2.0713    2.2359    0.2998 H   0  0  0  0  0  0  0  0  0  0  0  0
    1.9079    2.2059    2.0994 H   0  0  0  0  0  0  0  0  0  0  0  0
    6.8858    3.0170    1.6573 H   0  0  0  0  0  0  0  0  0  0  0  0
   -0.0779    1.2045    0.9949 H   0  0  0  0  0  0  0  0  0  0  0  0
    0.8037   -0.0369    1.9636 H   0  0  0  0  0  0  0  0  0  0  0  0
    0.9674   -0.0069    0.1603 H   0  0  0  0  0  0  0  0  0  0  0  0
    8.4933    0.4096    1.7597 H   0  0  0  0  0  0  0  0  0  0  0  0
    9.1258    2.1681    1.8464 H   0  0  0  0  0  0  0  0  0  0  0  0
  1  2  1  0  0  0  0
  1  4  1  0  0  0  0
  1  8  1  0  0  0  0
  1  9  1  0  0  0  0
  2  3  1  0  0  0  0
  2 10  1  0  0  0  0
  2 11  1  0  0  0  0
  3  5  1  0  0  0  0
  3 12  1  0  0  0  0
  3 13  1  0  0  0  0
  4  6  1  0  0  0  0
  4 14  1  0  0  0  0
  4 15  1  0  0  0  0
  5  7  2  0  0  0  0
  5 16  1  0  0  0  0
  6 17  1  0  0  0  0
  6 18  1  0  0  0  0
  6 19  1  0  0  0  0
  7 20  1  0  0  0  0
  7 21  1  0  0  0  0
M  END
