
 OpenBabel06032311143D

 18 17  0  0  0  0  0  0  0  0999 V2000
   -2.8153   -2.9396    0.0453 H   0  0  0  0  0  0  0  0  0  0  0  0
   -0.9691   -3.2415    0.0260 H   0  0  0  0  0  0  0  0  0  0  0  0
   -1.8038   -2.5468    0.0342 C   0  0  0  0  0  0  0  0  0  0  0  0
   -2.4591   -0.5633    0.0394 H   0  0  0  0  0  0  0  0  0  0  0  0
   -1.5988   -1.2276    0.0309 C   0  0  0  0  0  0  0  0  0  0  0  0
    0.3410   -1.0232    0.9154 H   0  0  0  0  0  0  0  0  0  0  0  0
    0.3218   -1.0248   -0.8947 H   0  0  0  0  0  0  0  0  0  0  0  0
   -0.2045   -0.6628    0.0157 C   0  0  0  0  0  0  0  0  0  0  0  0
   -0.7769    1.2271   -0.8849 H   0  0  0  0  0  0  0  0  0  0  0  0
   -0.7577    1.2288    0.9247 H   0  0  0  0  0  0  0  0  0  0  0  0
   -0.2278    0.8696    0.0145 C   0  0  0  0  0  0  0  0  0  0  0  0
    1.7484    1.0900    0.8971 H   0  0  0  0  0  0  0  0  0  0  0  0
    1.7293    1.0884   -0.9100 H   0  0  0  0  0  0  0  0  0  0  0  0
    1.1947    1.4410   -0.0010 C   0  0  0  0  0  0  0  0  0  0  0  0
    0.6463    3.3457   -0.9024 H   0  0  0  0  0  0  0  0  0  0  0  0
    0.6655    3.3473    0.9084 H   0  0  0  0  0  0  0  0  0  0  0  0
    2.2169    3.3522   -0.0135 H   0  0  0  0  0  0  0  0  0  0  0  0
    1.1756    2.9668   -0.0022 C   0  0  0  0  0  0  0  0  0  0  0  0
  1  3  1  0  0  0  0
  2  3  1  0  0  0  0
  3  5  2  0  0  0  0
  4  5  1  0  0  0  0
  5  8  1  0  0  0  0
  6  8  1  0  0  0  0
  7  8  1  0  0  0  0
  8 11  1  0  0  0  0
  9 11  1  0  0  0  0
 10 11  1  0  0  0  0
 11 14  1  0  0  0  0
 12 14  1  0  0  0  0
 13 14  1  0  0  0  0
 14 18  1  0  0  0  0
 15 18  1  0  0  0  0
 16 18  1  0  0  0  0
 17 18  1  0  0  0  0
M  END
