
 OpenBabel05252314033D

 15 14  0  0  0  0  0  0  0  0999 V2000
    1.2068   -0.4887    0.0052 O   0  0  0  0  0  0  0  0  0  0  0  0
   -1.1844   -0.5234    0.0034 C   0  0  0  0  0  0  0  0  0  0  0  0
    0.0709    0.3486    0.0015 C   0  0  0  0  0  0  0  0  0  0  0  0
   -2.4525    0.3260   -0.0005 C   0  0  0  0  0  0  0  0  0  0  0  0
    2.3710    0.3056    0.0038 C   0  0  0  0  0  0  0  0  0  0  0  0
   -1.1821   -1.1748   -0.8976 H   0  0  0  0  0  0  0  0  0  0  0  0
   -1.1836   -1.1687    0.9087 H   0  0  0  0  0  0  0  0  0  0  0  0
    0.0541    0.9812   -0.9163 H   0  0  0  0  0  0  0  0  0  0  0  0
    0.0526    0.9874    0.9149 H   0  0  0  0  0  0  0  0  0  0  0  0
   -2.4864    0.9656   -0.9082 H   0  0  0  0  0  0  0  0  0  0  0  0
   -3.3438   -0.3362    0.0010 H   0  0  0  0  0  0  0  0  0  0  0  0
   -2.4879    0.9717    0.9027 H   0  0  0  0  0  0  0  0  0  0  0  0
    2.4380    0.9252   -0.9181 H   0  0  0  0  0  0  0  0  0  0  0  0
    3.2524   -0.3679    0.0065 H   0  0  0  0  0  0  0  0  0  0  0  0
    2.4365    0.9307    0.9220 H   0  0  0  0  0  0  0  0  0  0  0  0
  1  3  1  0  0  0  0
  1  5  1  0  0  0  0
  2  3  1  0  0  0  0
  2  4  1  0  0  0  0
  2  6  1  0  0  0  0
  2  7  1  0  0  0  0
  3  8  1  0  0  0  0
  3  9  1  0  0  0  0
  4 10  1  0  0  0  0
  4 11  1  0  0  0  0
  4 12  1  0  0  0  0
  5 13  1  0  0  0  0
  5 14  1  0  0  0  0
  5 15  1  0  0  0  0
M  END
