  1-METHYL-4-ISOPROPYLCYCLOHEXANE.mol	99-82-1
  NIST    07011523533D 1   1.00000  -393.13411
Copyright by the U.S. Sec. Commerce on behalf of U.S.A. All rights reserved.
 30 30  0  0  1  0  0  0  0  0999 V2000
    2.9579    0.9530    5.1543 C    0  0  0  0  0  0  0  0  0  0  0  0
    3.1515    1.7024    3.8268 C    0  0  0  0  0  0  0  0  0  0  0  0
    2.0869    1.7331    6.1515 C    0  0  0  0  0  0  0  0  0  0  0  0
    1.8167    2.0831    3.1510 C    0  0  0  0  0  0  0  0  0  0  0  0
    0.9353    2.8495    4.1606 C    0  0  0  0  0  0  0  0  0  0  0  0
    2.0231    2.8685    1.8269 C    0  0  0  0  0  0  0  0  0  0  0  0
    0.7500    2.0965    5.4871 C    0  0  0  0  0  0  0  0  0  0  0  0
    1.8847    0.9620    7.4605 C    0  0  0  0  0  0  0  0  0  0  0  0
    0.6921    3.2488    1.1539 C    0  0  0  0  0  0  0  0  0  0  0  0
    2.8963    2.1015    0.8178 C    0  0  0  0  0  0  0  0  0  0  0  0
    3.9367    0.7318    5.6015 H    0  0  0  0  0  0  0  0  0  0  0  0
    2.4828   -0.0204    4.9554 H    0  0  0  0  0  0  0  0  0  0  0  0
    3.7585    1.0841    3.1564 H    0  0  0  0  0  0  0  0  0  0  0  0
    3.7303    2.6214    4.0101 H    0  0  0  0  0  0  0  0  0  0  0  0
    2.6098    2.6746    6.3866 H    0  0  0  0  0  0  0  0  0  0  0  0
    1.2932    1.1451    2.8966 H    0  0  0  0  0  0  0  0  0  0  0  0
   -0.0503    3.0561    3.7294 H    0  0  0  0  0  0  0  0  0  0  0  0
    1.3974    3.8290    4.3618 H    0  0  0  0  0  0  0  0  0  0  0  0
    2.5484    3.8035    2.0803 H    0  0  0  0  0  0  0  0  0  0  0  0
    0.1828    1.1706    5.3032 H    0  0  0  0  0  0  0  0  0  0  0  0
    0.1401    2.6996    6.1736 H    0  0  0  0  0  0  0  0  0  0  0  0
    1.3657    0.0115    7.2801 H    0  0  0  0  0  0  0  0  0  0  0  0
    2.8435    0.7306    7.9403 H    0  0  0  0  0  0  0  0  0  0  0  0
    1.2830    1.5381    8.1741 H    0  0  0  0  0  0  0  0  0  0  0  0
    0.0894    2.3550    0.9436 H    0  0  0  0  0  0  0  0  0  0  0  0
    0.0872    3.9228    1.7678 H    0  0  0  0  0  0  0  0  0  0  0  0
    0.8755    3.7540    0.1983 H    0  0  0  0  0  0  0  0  0  0  0  0
    2.4555    1.1238    0.5807 H    0  0  0  0  0  0  0  0  0  0  0  0
    2.9800    2.6607   -0.1215 H    0  0  0  0  0  0  0  0  0  0  0  0
    3.9121    1.9296    1.1859 H    0  0  0  0  0  0  0  0  0  0  0  0
  1  3  1  0  0  0  0
  1 11  1  0  0  0  0
  1 12  1  0  0  0  0
  2  1  1  0  0  0  0
  2 13  1  0  0  0  0
  2 14  1  0  0  0  0
  3  7  1  0  0  0  0
  3  8  1  0  0  0  0
  3 15  1  1  0  0  0
  4  2  1  0  0  0  0
  4  6  1  0  0  0  0
  4 16  1  6  0  0  0
  5  4  1  0  0  0  0
  5 17  1  0  0  0  0
  5 18  1  0  0  0  0
  6  9  1  0  0  0  0
  6 10  1  0  0  0  0
  6 19  1  0  0  0  0
  7  5  1  0  0  0  0
  7 20  1  0  0  0  0
  7 21  1  0  0  0  0
  8 22  1  0  0  0  0
  8 23  1  0  0  0  0
  8 24  1  0  0  0  0
  9 25  1  0  0  0  0
  9 26  1  0  0  0  0
  9 27  1  0  0  0  0
 10 28  1  0  0  0  0
 10 29  1  0  0  0  0
 10 30  1  0  0  0  0
M  END
