
 OpenBabel11251910333D

 30 31  0  0  0  0  0  0  0  0999 V2000
    2.7780    3.6826    3.3993 C   0  0  0  0  0  0  0  0  0  0  0  0
    3.4690    5.0045    3.7783 C   0  0  0  0  0  0  0  0  0  0  0  0
    3.7816    2.6138    3.0053 C   0  0  0  0  0  0  0  0  0  0  0  0
    2.4355    6.0710    4.1594 C   0  0  0  0  0  0  0  0  0  0  0  0
    4.6395    1.9765    3.9490 C   0  0  0  0  0  0  0  0  0  0  0  0
    3.8600    2.2414    1.6504 C   0  0  0  0  0  0  0  0  0  0  0  0
    3.1110    7.3922    4.5155 C   0  0  0  0  0  0  0  0  0  0  0  0
    5.5683    0.9999    3.4945 C   0  0  0  0  0  0  0  0  0  0  0  0
    4.5887    2.2677    5.3311 C   0  0  0  0  0  0  0  0  0  0  0  0
    4.7749    1.2804    1.2233 C   0  0  0  0  0  0  0  0  0  0  0  0
    5.6278    0.6657    2.1355 C   0  0  0  0  0  0  0  0  0  0  0  0
    6.4237    0.3632    4.4077 C   0  0  0  0  0  0  0  0  0  0  0  0
    5.4468    1.6219    6.2248 C   0  0  0  0  0  0  0  0  0  0  0  0
    6.3626    0.6770    5.7650 C   0  0  0  0  0  0  0  0  0  0  0  0
    2.1102    3.9093    2.5387 H   0  0  0  0  0  0  0  0  0  0  0  0
    2.1290    3.3029    4.2174 H   0  0  0  0  0  0  0  0  0  0  0  0
    4.0600    5.3614    2.9058 H   0  0  0  0  0  0  0  0  0  0  0  0
    4.1675    4.8668    4.6270 H   0  0  0  0  0  0  0  0  0  0  0  0
    1.8462    5.7216    5.0352 H   0  0  0  0  0  0  0  0  0  0  0  0
    1.7415    6.2424    3.3076 H   0  0  0  0  0  0  0  0  0  0  0  0
    3.2146    2.7075    0.9160 H   0  0  0  0  0  0  0  0  0  0  0  0
    2.3397    8.1433    4.7872 H   0  0  0  0  0  0  0  0  0  0  0  0
    3.6908    7.7752    3.6488 H   0  0  0  0  0  0  0  0  0  0  0  0
    3.7946    7.2558    5.3805 H   0  0  0  0  0  0  0  0  0  0  0  0
    3.8868    2.9818    5.7337 H   0  0  0  0  0  0  0  0  0  0  0  0
    4.8244    1.0126    0.1757 H   0  0  0  0  0  0  0  0  0  0  0  0
    6.3320   -0.0783    1.7820 H   0  0  0  0  0  0  0  0  0  0  0  0
    7.1359   -0.3799    4.0685 H   0  0  0  0  0  0  0  0  0  0  0  0
    5.3986    1.8544    7.2809 H   0  0  0  0  0  0  0  0  0  0  0  0
    7.0233    0.1807    6.4642 H   0  0  0  0  0  0  0  0  0  0  0  0
  1  2  1  0  0  0  0
  1  3  1  0  0  0  0
  1 15  1  0  0  0  0
  1 16  1  0  0  0  0
  2  4  1  0  0  0  0
  2 17  1  0  0  0  0
  2 18  1  0  0  0  0
  3  5  2  0  0  0  0
  4  7  1  0  0  0  0
  4 19  1  0  0  0  0
  4 20  1  0  0  0  0
  5  9  1  0  0  0  0
  6  3  1  0  0  0  0
  6 21  1  0  0  0  0
  7 22  1  0  0  0  0
  7 23  1  0  0  0  0
  7 24  1  0  0  0  0
  8  5  1  0  0  0  0
  8 11  2  0  0  0  0
  9 13  2  0  0  0  0
  9 25  1  0  0  0  0
 10  6  2  0  0  0  0
 10 26  1  0  0  0  0
 11 10  1  0  0  0  0
 11 27  1  0  0  0  0
 12  8  1  0  0  0  0
 12 28  1  0  0  0  0
 13 14  1  0  0  0  0
 13 29  1  0  0  0  0
 14 12  2  0  0  0  0
 14 30  1  0  0  0  0
M  END
