
 OpenBabel06032311183D

 24 23  0  0  0  0  0  0  0  0999 V2000
    2.9914    2.4705    2.4197 C   0  0  0  0  0  0  0  0  0  0  0  0
    2.8957    2.4001    0.8909 C   0  0  0  0  0  0  0  0  0  0  0  0
    3.7970    3.4524    0.2340 C   0  0  0  0  0  0  0  0  0  0  0  0
    2.0904    1.4188    3.0763 C   0  0  0  0  0  0  0  0  0  0  0  0
    3.7009    3.3815   -1.2943 C   0  0  0  0  0  0  0  0  0  0  0  0
    2.1818    1.4849    4.5765 C   0  0  0  0  0  0  0  0  0  0  0  0
    4.5966    4.4274   -1.9518 C   0  0  0  0  0  0  0  0  0  0  0  0
    1.4740    0.6523    5.3434 C   0  0  0  0  0  0  0  0  0  0  0  0
    2.6809    3.4831    2.7608 H   0  0  0  0  0  0  0  0  0  0  0  0
    4.0455    2.2950    2.7301 H   0  0  0  0  0  0  0  0  0  0  0  0
    1.8417    2.5750    0.5809 H   0  0  0  0  0  0  0  0  0  0  0  0
    3.2056    1.3875    0.5501 H   0  0  0  0  0  0  0  0  0  0  0  0
    4.8512    3.2776    0.5437 H   0  0  0  0  0  0  0  0  0  0  0  0
    3.4872    4.4652    0.5745 H   0  0  0  0  0  0  0  0  0  0  0  0
    1.0355    1.5935    2.7707 H   0  0  0  0  0  0  0  0  0  0  0  0
    2.4005    0.4050    2.7400 H   0  0  0  0  0  0  0  0  0  0  0  0
    2.6500    3.5591   -1.6114 H   0  0  0  0  0  0  0  0  0  0  0  0
    4.0129    2.3725   -1.6421 H   0  0  0  0  0  0  0  0  0  0  0  0
    2.8289    2.2158    5.0544 H   0  0  0  0  0  0  0  0  0  0  0  0
    4.2921    5.4487   -1.6382 H   0  0  0  0  0  0  0  0  0  0  0  0
    4.5070    4.3531   -3.0561 H   0  0  0  0  0  0  0  0  0  0  0  0
    5.6577    4.2597   -1.6690 H   0  0  0  0  0  0  0  0  0  0  0  0
    1.5502    0.7118    6.4243 H   0  0  0  0  0  0  0  0  0  0  0  0
    0.8169   -0.0910    4.9019 H   0  0  0  0  0  0  0  0  0  0  0  0
  1  2  1  0  0  0  0
  1  4  1  0  0  0  0
  1  9  1  0  0  0  0
  1 10  1  0  0  0  0
  2  3  1  0  0  0  0
  2 11  1  0  0  0  0
  2 12  1  0  0  0  0
  3  5  1  0  0  0  0
  3 13  1  0  0  0  0
  3 14  1  0  0  0  0
  4  6  1  0  0  0  0
  4 15  1  0  0  0  0
  4 16  1  0  0  0  0
  5  7  1  0  0  0  0
  5 17  1  0  0  0  0
  5 18  1  0  0  0  0
  6  8  2  0  0  0  0
  6 19  1  0  0  0  0
  7 20  1  0  0  0  0
  7 21  1  0  0  0  0
  7 22  1  0  0  0  0
  8 23  1  0  0  0  0
  8 24  1  0  0  0  0
M  END
