  2,2,3,4,4-PENTAMETHYLPENTANE.mol	16747-45-8
  NIST    08031419493D 1   1.00000  -394.31477
Copyright by the U.S. Sec. Commerce on behalf of U.S.A. All rights reserved.
 32 31  0  0  0  0  0  0  0  0999 V2000
   -0.2043   38.5156    0.5574 C    0  0  0  0  0  0  0  0  0  0  0  0
    1.1789   38.1322   -0.0105 C    0  0  0  0  0  0  0  0  0  0  0  0
    2.2873   39.2620    0.1358 C    0  0  0  0  0  0  0  0  0  0  0  0
    1.6435   36.9070    0.8186 C    0  0  0  0  0  0  0  0  0  0  0  0
    0.9767   37.6675   -1.4715 C    0  0  0  0  0  0  0  0  0  0  0  0
    1.9280   40.7857   -0.1304 C    0  0  0  0  0  0  0  0  0  0  0  0
    3.5580   38.8541   -0.6490 C    0  0  0  0  0  0  0  0  0  0  0  0
    1.2459   41.0373   -1.4907 C    0  0  0  0  0  0  0  0  0  0  0  0
    1.0453   41.3777    0.9951 C    0  0  0  0  0  0  0  0  0  0  0  0
    3.2340   41.6229   -0.1059 C    0  0  0  0  0  0  0  0  0  0  0  0
   -0.8614   37.6371    0.5344 H    0  0  0  0  0  0  0  0  0  0  0  0
   -0.6995   39.2986   -0.0235 H    0  0  0  0  0  0  0  0  0  0  0  0
   -0.1417   38.8465    1.5997 H    0  0  0  0  0  0  0  0  0  0  0  0
    2.5640   39.2403    1.2012 H    0  0  0  0  0  0  0  0  0  0  0  0
    2.6068   36.5069    0.4875 H    0  0  0  0  0  0  0  0  0  0  0  0
    0.9110   36.0949    0.7367 H    0  0  0  0  0  0  0  0  0  0  0  0
    1.7357   37.1636    1.8813 H    0  0  0  0  0  0  0  0  0  0  0  0
    0.2247   36.8694   -1.5044 H    0  0  0  0  0  0  0  0  0  0  0  0
    0.6246   38.4745   -2.1203 H    0  0  0  0  0  0  0  0  0  0  0  0
    1.8955   37.2636   -1.9081 H    0  0  0  0  0  0  0  0  0  0  0  0
    4.4436   39.3709   -0.2713 H    0  0  0  0  0  0  0  0  0  0  0  0
    3.7610   37.7836   -0.5668 H    0  0  0  0  0  0  0  0  0  0  0  0
    3.4723   39.0850   -1.7169 H    0  0  0  0  0  0  0  0  0  0  0  0
    1.1456   42.1161   -1.6645 H    0  0  0  0  0  0  0  0  0  0  0  0
    1.8291   40.6268   -2.3229 H    0  0  0  0  0  0  0  0  0  0  0  0
    0.2410   40.6074   -1.5388 H    0  0  0  0  0  0  0  0  0  0  0  0
    0.9672   42.4650    0.8714 H    0  0  0  0  0  0  0  0  0  0  0  0
    1.4890   41.1923    1.9816 H    0  0  0  0  0  0  0  0  0  0  0  0
    0.0292   40.9836    1.0058 H    0  0  0  0  0  0  0  0  0  0  0  0
    3.8082   41.4470    0.8126 H    0  0  0  0  0  0  0  0  0  0  0  0
    3.8857   41.4124   -0.9587 H    0  0  0  0  0  0  0  0  0  0  0  0
    2.9882   42.6909   -0.1406 H    0  0  0  0  0  0  0  0  0  0  0  0
  1  2  1  0
  2  3  1  0
  2  4  1  0
  2  5  1  0
  3  6  1  0
  3  7  1  0
  6  8  1  0
  6  9  1  0
  6 10  1  0
  1 11  1  0
  1 12  1  0
  1 13  1  0
  3 14  1  0
  4 15  1  0
  4 16  1  0
  4 17  1  0
  5 18  1  0
  5 19  1  0
  5 20  1  0
  7 21  1  0
  7 22  1  0
  7 23  1  0
  8 24  1  0
  8 25  1  0
  8 26  1  0
  9 27  1  0
  9 28  1  0
  9 29  1  0
 10 30  1  0
 10 31  1  0
 10 32  1  0
M  END
