  2,2,3,5-TETRAMETHYLHEXANE.mol	52897-09-3
  NIST    08031214523D 1   1.00000  -394.32910
Copyright by the U.S. Sec. Commerce on behalf of U.S.A. All rights reserved.
 32 31  0  0  0  0  0  0  0  0999 V2000
    1.6719    0.1735   -1.2004 C    0  0  0  0  0  0  0  0  0  0  0  0
    2.4634    1.2481   -0.4397 C    0  0  0  0  0  0  0  0  0  0  0  0
    3.5564    0.5959    0.4349 C    0  0  0  0  0  0  0  0  0  0  0  0
    3.0185    2.2943   -1.4180 C    0  0  0  0  0  0  0  0  0  0  0  0
    4.3244    1.5691    1.3775 C    0  0  0  0  0  0  0  0  0  0  0  0
    4.3272    1.1189    2.8824 C    0  0  0  0  0  0  0  0  0  0  0  0
    5.7315    1.8494    0.8162 C    0  0  0  0  0  0  0  0  0  0  0  0
    4.9757   -0.2672    3.0743 C    0  0  0  0  0  0  0  0  0  0  0  0
    5.0982    2.1455    3.7403 C    0  0  0  0  0  0  0  0  0  0  0  0
    2.8762    1.0775    3.4090 C    0  0  0  0  0  0  0  0  0  0  0  0
    1.2259   -0.5571   -0.5147 H    0  0  0  0  0  0  0  0  0  0  0  0
    0.8612    0.6181   -1.7900 H    0  0  0  0  0  0  0  0  0  0  0  0
    2.3229   -0.3755   -1.8935 H    0  0  0  0  0  0  0  0  0  0  0  0
    1.7645    1.7621    0.2388 H    0  0  0  0  0  0  0  0  0  0  0  0
    3.0765   -0.1994    1.0160 H    0  0  0  0  0  0  0  0  0  0  0  0
    4.2716    0.0823   -0.2247 H    0  0  0  0  0  0  0  0  0  0  0  0
    3.5430    3.1058   -0.9018 H    0  0  0  0  0  0  0  0  0  0  0  0
    2.2102    2.7462   -2.0054 H    0  0  0  0  0  0  0  0  0  0  0  0
    3.7230    1.8347   -2.1240 H    0  0  0  0  0  0  0  0  0  0  0  0
    3.7837    2.5286    1.3713 H    0  0  0  0  0  0  0  0  0  0  0  0
    6.2471    2.6494    1.3566 H    0  0  0  0  0  0  0  0  0  0  0  0
    5.6672    2.1537   -0.2339 H    0  0  0  0  0  0  0  0  0  0  0  0
    6.3652    0.9549    0.8531 H    0  0  0  0  0  0  0  0  0  0  0  0
    4.9632   -0.5496    4.1342 H    0  0  0  0  0  0  0  0  0  0  0  0
    4.4454   -1.0506    2.5214 H    0  0  0  0  0  0  0  0  0  0  0  0
    6.0215   -0.2752    2.7469 H    0  0  0  0  0  0  0  0  0  0  0  0
    4.9874    1.9121    4.8062 H    0  0  0  0  0  0  0  0  0  0  0  0
    4.7169    3.1626    3.5826 H    0  0  0  0  0  0  0  0  0  0  0  0
    6.1703    2.1494    3.5184 H    0  0  0  0  0  0  0  0  0  0  0  0
    2.3968    2.0606    3.3195 H    0  0  0  0  0  0  0  0  0  0  0  0
    2.2547    0.3536    2.8709 H    0  0  0  0  0  0  0  0  0  0  0  0
    2.8598    0.7960    4.4689 H    0  0  0  0  0  0  0  0  0  0  0  0
  1  2  1  0
  2  3  1  0
  2  4  1  0
  3  5  1  0
  5  6  1  0
  5  7  1  0
  6  8  1  0
  6  9  1  0
  6 10  1  0
  1 11  1  0
  1 12  1  0
  1 13  1  0
  2 14  1  0
  3 15  1  0
  3 16  1  0
  4 17  1  0
  4 18  1  0
  4 19  1  0
  5 20  1  0
  7 21  1  0
  7 22  1  0
  7 23  1  0
  8 24  1  0
  8 25  1  0
  8 26  1  0
  9 27  1  0
  9 28  1  0
  9 29  1  0
 10 30  1  0
 10 31  1  0
 10 32  1  0
M  END
