  2,2,4,5-TETRAMETHYLHEXANE.mol	16747-42-5
  NIST    08091211023D 1   1.00000  -394.33002
Copyright by the U.S. Sec. Commerce on behalf of U.S.A. All rights reserved.
 32 31  0  0  0  0  0  0  0  0999 V2000
    0.7877    0.9755    1.1081 C    0  0  0  0  0  0  0  0  0  0  0  0
    1.9140    1.3157    0.1170 C    0  0  0  0  0  0  0  0  0  0  0  0
    2.8418    0.0959   -0.0171 C    0  0  0  0  0  0  0  0  0  0  0  0
    1.3879    1.7992   -1.2663 C    0  0  0  0  0  0  0  0  0  0  0  0
    0.2515    2.8297   -1.1249 C    0  0  0  0  0  0  0  0  0  0  0  0
    2.5329    2.3868   -2.1414 C    0  0  0  0  0  0  0  0  0  0  0  0
    2.5829    1.9933   -3.6457 C    0  0  0  0  0  0  0  0  0  0  0  0
    3.7220    2.7977   -4.3049 C    0  0  0  0  0  0  0  0  0  0  0  0
    2.8890    0.4908   -3.8063 C    0  0  0  0  0  0  0  0  0  0  0  0
    1.2645    2.3222   -4.3724 C    0  0  0  0  0  0  0  0  0  0  0  0
    1.2057    0.5712    2.0376 H    0  0  0  0  0  0  0  0  0  0  0  0
    0.1836    1.8483    1.3736 H    0  0  0  0  0  0  0  0  0  0  0  0
    0.1138    0.2139    0.6930 H    0  0  0  0  0  0  0  0  0  0  0  0
    2.4988    2.1437    0.5496 H    0  0  0  0  0  0  0  0  0  0  0  0
    3.6819    0.2737   -0.6959 H    0  0  0  0  0  0  0  0  0  0  0  0
    3.2596   -0.1835    0.9573 H    0  0  0  0  0  0  0  0  0  0  0  0
    2.2865   -0.7711   -0.3988 H    0  0  0  0  0  0  0  0  0  0  0  0
    0.9700    0.9131   -1.7682 H    0  0  0  0  0  0  0  0  0  0  0  0
   -0.0343    3.2354   -2.1001 H    0  0  0  0  0  0  0  0  0  0  0  0
   -0.6475    2.3987   -0.6731 H    0  0  0  0  0  0  0  0  0  0  0  0
    0.5696    3.6750   -0.4998 H    0  0  0  0  0  0  0  0  0  0  0  0
    2.4821    3.4837   -2.0781 H    0  0  0  0  0  0  0  0  0  0  0  0
    3.5060    2.1182   -1.7109 H    0  0  0  0  0  0  0  0  0  0  0  0
    3.8251    2.5384   -5.3660 H    0  0  0  0  0  0  0  0  0  0  0  0
    3.5342    3.8767   -4.2415 H    0  0  0  0  0  0  0  0  0  0  0  0
    4.6841    2.5965   -3.8175 H    0  0  0  0  0  0  0  0  0  0  0  0
    2.9527    0.2202   -4.8676 H    0  0  0  0  0  0  0  0  0  0  0  0
    2.1141   -0.1378   -3.3533 H    0  0  0  0  0  0  0  0  0  0  0  0
    3.8463    0.2297   -3.3386 H    0  0  0  0  0  0  0  0  0  0  0  0
    1.0231    3.3898   -4.3000 H    0  0  0  0  0  0  0  0  0  0  0  0
    1.3422    2.0724   -5.4380 H    0  0  0  0  0  0  0  0  0  0  0  0
    0.4195    1.7563   -3.9646 H    0  0  0  0  0  0  0  0  0  0  0  0
  1  2  1  0
  2  3  1  0
  2  4  1  0
  4  5  1  0
  4  6  1  0
  6  7  1  0
  7  8  1  0
  7  9  1  0
  7 10  1  0
  1 11  1  0
  1 12  1  0
  1 13  1  0
  2 14  1  0
  3 15  1  0
  3 16  1  0
  3 17  1  0
  4 18  1  0
  5 19  1  0
  5 20  1  0
  5 21  1  0
  6 22  1  0
  6 23  1  0
  8 24  1  0
  8 25  1  0
  8 26  1  0
  9 27  1  0
  9 28  1  0
  9 29  1  0
 10 30  1  0
 10 31  1  0
 10 32  1  0
M  END
