  2,2-DIMETHYL-3-ETHYLHEXANE.mol	20291-91-2
  NIST    08011311463D 1   1.00000     0.00000
Copyright by the U.S. Sec. Commerce on behalf of U.S.A. All rights reserved.
 32 31  0  0  0  0  0  0  0  0999 V2000
    0.1461   -0.1368   -0.6941 C    0  0  0  0  0  0  0  0  0  0  0  0
    0.9479    1.1685   -0.6793 C    0  0  0  0  0  0  0  0  0  0  0  0
    2.1796    1.1072    0.2369 C    0  0  0  0  0  0  0  0  0  0  0  0
    3.0272    2.4145    0.2745 C    0  0  0  0  0  0  0  0  0  0  0  0
    2.8662    3.2384    1.6040 C    0  0  0  0  0  0  0  0  0  0  0  0
    4.5009    2.1062   -0.0847 C    0  0  0  0  0  0  0  0  0  0  0  0
    3.4916    2.5097    2.8110 C    0  0  0  0  0  0  0  0  0  0  0  0
    3.5392    4.6214    1.4566 C    0  0  0  0  0  0  0  0  0  0  0  0
    1.3710    3.4946    1.8903 C    0  0  0  0  0  0  0  0  0  0  0  0
    4.7028    1.7179   -1.5553 C    0  0  0  0  0  0  0  0  0  0  0  0
   -0.7210   -0.0676   -1.3610 H    0  0  0  0  0  0  0  0  0  0  0  0
    0.7628   -0.9775   -1.0359 H    0  0  0  0  0  0  0  0  0  0  0  0
   -0.2239   -0.3866    0.3082 H    0  0  0  0  0  0  0  0  0  0  0  0
    0.2959    1.9950   -0.3675 H    0  0  0  0  0  0  0  0  0  0  0  0
    1.2740    1.4101   -1.7008 H    0  0  0  0  0  0  0  0  0  0  0  0
    2.8089    0.2713   -0.0970 H    0  0  0  0  0  0  0  0  0  0  0  0
    1.8554    0.8303    1.2481 H    0  0  0  0  0  0  0  0  0  0  0  0
    2.6449    3.0748   -0.5209 H    0  0  0  0  0  0  0  0  0  0  0  0
    5.1357    2.9742    0.1255 H    0  0  0  0  0  0  0  0  0  0  0  0
    4.8707    1.2951    0.5574 H    0  0  0  0  0  0  0  0  0  0  0  0
    3.3386    3.0907    3.7289 H    0  0  0  0  0  0  0  0  0  0  0  0
    3.0447    1.5216    2.9717 H    0  0  0  0  0  0  0  0  0  0  0  0
    4.5713    2.3721    2.6861 H    0  0  0  0  0  0  0  0  0  0  0  0
    3.3384    5.2384    2.3409 H    0  0  0  0  0  0  0  0  0  0  0  0
    3.1507    5.1590    0.5824 H    0  0  0  0  0  0  0  0  0  0  0  0
    4.6266    4.5524    1.3527 H    0  0  0  0  0  0  0  0  0  0  0  0
    0.8928    4.0237    1.0566 H    0  0  0  0  0  0  0  0  0  0  0  0
    0.8128    2.5690    2.0654 H    0  0  0  0  0  0  0  0  0  0  0  0
    1.2566    4.1175    2.7859 H    0  0  0  0  0  0  0  0  0  0  0  0
    5.7563    1.4963   -1.7618 H    0  0  0  0  0  0  0  0  0  0  0  0
    4.1213    0.8307   -1.8325 H    0  0  0  0  0  0  0  0  0  0  0  0
    4.3978    2.5339   -2.2224 H    0  0  0  0  0  0  0  0  0  0  0  0
  1  2  1  0
  2  3  1  0
  3  4  1  0
  4  5  1  0
  4  6  1  0
  5  7  1  0
  5  8  1  0
  5  9  1  0
  6 10  1  0
  1 11  1  0
  1 12  1  0
  1 13  1  0
  2 14  1  0
  2 15  1  0
  3 16  1  0
  3 17  1  0
  4 18  1  0
  6 19  1  0
  6 20  1  0
  7 21  1  0
  7 22  1  0
  7 23  1  0
  8 24  1  0
  8 25  1  0
  8 26  1  0
  9 27  1  0
  9 28  1  0
  9 29  1  0
 10 30  1  0
 10 31  1  0
 10 32  1  0
M  END
