  2,4,5-TRIMETHYLHEPTANE.mol	20278-84-6
  NIST    08011311463D 1   1.00000     0.00000
Copyright by the U.S. Sec. Commerce on behalf of U.S.A. All rights reserved.
 32 31  0  0  0  0  0  0  0  0999 V2000
   -0.4394   18.0812   -0.2955 C    0  0  0  0  0  0  0  0  0  0  0  0
    0.9739   18.5404    0.0842 C    0  0  0  0  0  0  0  0  0  0  0  0
    1.2664   20.0578    0.0173 C    0  0  0  0  0  0  0  0  0  0  0  0
    0.4722   20.9700    1.0094 C    0  0  0  0  0  0  0  0  0  0  0  0
    2.7811   20.2825    0.1871 C    0  0  0  0  0  0  0  0  0  0  0  0
   -0.9145   21.3803    0.4627 C    0  0  0  0  0  0  0  0  0  0  0  0
    0.3911   20.3843    2.4295 C    0  0  0  0  0  0  0  0  0  0  0  0
   -1.6834   22.4590    1.2570 C    0  0  0  0  0  0  0  0  0  0  0  0
   -0.9253   23.7927    1.3394 C    0  0  0  0  0  0  0  0  0  0  0  0
   -3.0735   22.6730    0.6371 C    0  0  0  0  0  0  0  0  0  0  0  0
   -0.4780   16.9882   -0.3746 H    0  0  0  0  0  0  0  0  0  0  0  0
   -1.1887   18.3786    0.4449 H    0  0  0  0  0  0  0  0  0  0  0  0
   -0.7469   18.4939   -1.2641 H    0  0  0  0  0  0  0  0  0  0  0  0
    1.6830   18.0479   -0.5955 H    0  0  0  0  0  0  0  0  0  0  0  0
    1.2220   18.1651    1.0863 H    0  0  0  0  0  0  0  0  0  0  0  0
    1.0056   20.3920   -0.9992 H    0  0  0  0  0  0  0  0  0  0  0  0
    1.0633   21.8942    1.0811 H    0  0  0  0  0  0  0  0  0  0  0  0
    3.0457   21.3367    0.0434 H    0  0  0  0  0  0  0  0  0  0  0  0
    3.3532   19.6926   -0.5388 H    0  0  0  0  0  0  0  0  0  0  0  0
    3.1226   19.9889    1.1880 H    0  0  0  0  0  0  0  0  0  0  0  0
   -0.7854   21.7470   -0.5674 H    0  0  0  0  0  0  0  0  0  0  0  0
   -1.5573   20.4945    0.3876 H    0  0  0  0  0  0  0  0  0  0  0  0
    0.0292   21.1291    3.1463 H    0  0  0  0  0  0  0  0  0  0  0  0
    1.3731   20.0490    2.7825 H    0  0  0  0  0  0  0  0  0  0  0  0
   -0.2899   19.5259    2.4778 H    0  0  0  0  0  0  0  0  0  0  0  0
   -1.8360   22.0930    2.2827 H    0  0  0  0  0  0  0  0  0  0  0  0
   -1.5161   24.5450    1.8758 H    0  0  0  0  0  0  0  0  0  0  0  0
    0.0330   23.6956    1.8612 H    0  0  0  0  0  0  0  0  0  0  0  0
   -0.7197   24.1874    0.3353 H    0  0  0  0  0  0  0  0  0  0  0  0
   -3.6563   23.4045    1.2097 H    0  0  0  0  0  0  0  0  0  0  0  0
   -3.6459   21.7381    0.6053 H    0  0  0  0  0  0  0  0  0  0  0  0
   -2.9909   23.0470   -0.3921 H    0  0  0  0  0  0  0  0  0  0  0  0
  1  2  1  0
  2  3  1  0
  3  4  1  0
  3  5  1  0
  4  6  1  0
  4  7  1  0
  6  8  1  0
  8  9  1  0
  8 10  1  0
  1 11  1  0
  1 12  1  0
  1 13  1  0
  2 14  1  0
  2 15  1  0
  3 16  1  0
  4 17  1  0
  5 18  1  0
  5 19  1  0
  5 20  1  0
  6 21  1  0
  6 22  1  0
  7 23  1  0
  7 24  1  0
  7 25  1  0
  8 26  1  0
  9 27  1  0
  9 28  1  0
  9 29  1  0
 10 30  1  0
 10 31  1  0
 10 32  1  0
M  END
