
 OpenBabel10222213173D

 13 13  0  0  0  0  0  0  0  0999 V2000
    2.0172   -1.9645   -0.0001 Cl  0  0  0  0  0  0  0  0  0  0  0  0
   -3.2602   -0.5816   -0.0001 Cl  0  0  0  0  0  0  0  0  0  0  0  0
    2.4332    0.9984    0.0001 O   0  0  0  0  0  0  0  0  0  0  0  0
    1.1322    0.6412    0.0001 C   0  0  0  0  0  0  0  0  0  0  0  0
    0.7790   -0.7176   -0.0001 C   0  0  0  0  0  0  0  0  0  0  0  0
    0.1253    1.6195    0.0001 C   0  0  0  0  0  0  0  0  0  0  0  0
   -0.5708   -1.0899   -0.0001 C   0  0  0  0  0  0  0  0  0  0  0  0
   -1.2211    1.2434    0.0001 C   0  0  0  0  0  0  0  0  0  0  0  0
   -1.5703   -0.1109   -0.0001 C   0  0  0  0  0  0  0  0  0  0  0  0
    0.3846    2.6707    0.0002 H   0  0  0  0  0  0  0  0  0  0  0  0
   -0.8423   -2.1381   -0.0002 H   0  0  0  0  0  0  0  0  0  0  0  0
   -1.9910    2.0045    0.0001 H   0  0  0  0  0  0  0  0  0  0  0  0
    2.7134    1.9248    0.0002 H   0  0  0  0  0  0  0  0  0  0  0  0
  1  5  1  0  0  0  0
  2  9  1  0  0  0  0
  3  4  1  0  0  0  0
  3 13  1  0  0  0  0
  4  5  2  0  0  0  0
  4  6  1  0  0  0  0
  5  7  1  0  0  0  0
  6  8  2  0  0  0  0
  6 10  1  0  0  0  0
  7  9  2  0  0  0  0
  7 11  1  0  0  0  0
  8  9  1  0  0  0  0
  8 12  1  0  0  0  0
M  END
