
 OpenBabel05302316523D

 17 16  0  0  0  0  0  0  0  0999 V2000
    1.9696    0.3609   -0.2416 O   0  0  0  0  0  0  0  0  0  0  0  0
   -1.3624   -0.2090    1.2703 N   0  0  0  0  0  0  0  0  0  0  0  0
   -0.3770   -0.1036    0.1868 C   0  0  0  0  0  0  0  0  0  0  0  0
    1.0103    0.2527    0.7757 C   0  0  0  0  0  0  0  0  0  0  0  0
   -0.8353    0.9918   -0.7950 C   0  0  0  0  0  0  0  0  0  0  0  0
   -0.3095   -1.4526   -0.5544 C   0  0  0  0  0  0  0  0  0  0  0  0
    1.3201   -0.5420    1.4917 H   0  0  0  0  0  0  0  0  0  0  0  0
    0.9393    1.2215    1.3205 H   0  0  0  0  0  0  0  0  0  0  0  0
   -0.1264    1.0879   -1.6452 H   0  0  0  0  0  0  0  0  0  0  0  0
   -0.8997    1.9747   -0.2806 H   0  0  0  0  0  0  0  0  0  0  0  0
   -1.8394    0.7484   -1.2047 H   0  0  0  0  0  0  0  0  0  0  0  0
   -1.3081   -1.7205   -0.9619 H   0  0  0  0  0  0  0  0  0  0  0  0
    0.4109   -1.4082   -1.3993 H   0  0  0  0  0  0  0  0  0  0  0  0
    0.0113   -2.2617    0.1365 H   0  0  0  0  0  0  0  0  0  0  0  0
   -1.0776   -0.9509    1.9515 H   0  0  0  0  0  0  0  0  0  0  0  0
   -1.4331    0.6978    1.7882 H   0  0  0  0  0  0  0  0  0  0  0  0
    2.8227    0.5970    0.2069 H   0  0  0  0  0  0  0  0  0  0  0  0
  1  4  1  0  0  0  0
  1 17  1  0  0  0  0
  2  3  1  0  0  0  0
  2 15  1  0  0  0  0
  2 16  1  0  0  0  0
  3  4  1  0  0  0  0
  3  5  1  0  0  0  0
  3  6  1  0  0  0  0
  4  7  1  0  0  0  0
  4  8  1  0  0  0  0
  5  9  1  0  0  0  0
  5 10  1  0  0  0  0
  5 11  1  0  0  0  0
  6 12  1  0  0  0  0
  6 13  1  0  0  0  0
  6 14  1  0  0  0  0
M  END
