
 OpenBabel05302317043D

 24 25  0  0  0  0  0  0  0  0999 V2000
    0.9005   -2.3307   -0.5386 N   0  0  0  0  0  0  0  0  0  0  0  0
    0.6812   -0.1352    0.6602 C   0  0  0  0  0  0  0  0  0  0  0  0
   -0.7911   -0.2551    0.9454 C   0  0  0  0  0  0  0  0  0  0  0  0
    1.4625   -1.1466    0.0145 C   0  0  0  0  0  0  0  0  0  0  0  0
    1.3425    1.0441    1.0772 C   0  0  0  0  0  0  0  0  0  0  0  0
   -1.3836   -1.4892    1.2935 C   0  0  0  0  0  0  0  0  0  0  0  0
   -1.6211    0.8891    0.9172 C   0  0  0  0  0  0  0  0  0  0  0  0
    2.8456   -0.9526   -0.1507 C   0  0  0  0  0  0  0  0  0  0  0  0
    2.7144    1.2125    0.8945 C   0  0  0  0  0  0  0  0  0  0  0  0
    3.4657    0.2138    0.2879 C   0  0  0  0  0  0  0  0  0  0  0  0
   -2.7502   -1.5770    1.5751 C   0  0  0  0  0  0  0  0  0  0  0  0
   -2.9876    0.7939    1.1960 C   0  0  0  0  0  0  0  0  0  0  0  0
   -3.5524   -0.4382    1.5218 C   0  0  0  0  0  0  0  0  0  0  0  0
    0.8086    1.8403    1.5780 H   0  0  0  0  0  0  0  0  0  0  0  0
   -0.7962   -2.3913    1.3837 H   0  0  0  0  0  0  0  0  0  0  0  0
   -1.2254    1.8625    0.6607 H   0  0  0  0  0  0  0  0  0  0  0  0
    3.4478   -1.7072   -0.6417 H   0  0  0  0  0  0  0  0  0  0  0  0
    3.1977    2.1201    1.2330 H   0  0  0  0  0  0  0  0  0  0  0  0
    4.5307    0.3473    0.1476 H   0  0  0  0  0  0  0  0  0  0  0  0
   -3.1862   -2.5308    1.8435 H   0  0  0  0  0  0  0  0  0  0  0  0
   -3.6095    1.6792    1.1594 H   0  0  0  0  0  0  0  0  0  0  0  0
   -4.6100   -0.5090    1.7407 H   0  0  0  0  0  0  0  0  0  0  0  0
   -0.1107   -2.4661   -0.6487 H   0  0  0  0  0  0  0  0  0  0  0  0
    1.5081   -3.0339   -0.9846 H   0  0  0  0  0  0  0  0  0  0  0  0
  1  4  1  0  0  0  0
  1 23  1  0  0  0  0
  1 24  1  0  0  0  0
  2  3  1  0  0  0  0
  2  4  1  0  0  0  0
  2  5  2  0  0  0  0
  3  6  2  0  0  0  0
  3  7  1  0  0  0  0
  4  8  2  0  0  0  0
  5  9  1  0  0  0  0
  5 14  1  0  0  0  0
  6 11  1  0  0  0  0
  6 15  1  0  0  0  0
  7 12  2  0  0  0  0
  7 16  1  0  0  0  0
  8 10  1  0  0  0  0
  8 17  1  0  0  0  0
  9 10  2  0  0  0  0
  9 18  1  0  0  0  0
 10 19  1  0  0  0  0
 11 13  2  0  0  0  0
 11 20  1  0  0  0  0
 12 13  1  0  0  0  0
 12 21  1  0  0  0  0
 13 22  1  0  0  0  0
M  END
