
 OpenBabel05252314093D

 31 32  0  0  1  0  0  0  0  0999 V2000
    0.9027   -1.9602   -0.4893 O   0  0  0  0  0  0  0  0  0  0  0  0
    0.6677    0.2195    0.4927 C   0  0  1  0  0  0  0  0  0  0  0  0
    1.2969    1.4620   -0.1767 C   0  0  0  0  0  0  0  0  0  0  0  0
   -0.8249    0.1278    0.2057 C   0  0  0  0  0  0  0  0  0  0  0  0
    2.8103    1.5283    0.1074 C   0  0  0  0  0  0  0  0  0  0  0  0
   -1.7820    0.1823    1.3845 C   0  0  0  0  0  0  0  0  0  0  0  0
    3.5122    0.2551   -0.4035 C   0  0  0  0  0  0  0  0  0  0  0  0
    1.4414   -1.0066    0.0540 C   0  0  0  0  0  0  0  0  0  0  0  0
    2.9271   -0.9908    0.2753 C   0  0  0  0  0  0  0  0  0  0  0  0
   -3.2121   -0.2504    1.0225 C   0  0  0  0  0  0  0  0  0  0  0  0
   -3.6437    0.4525   -0.2531 C   0  0  0  0  0  0  0  0  0  0  0  0
   -1.2830    0.0101   -1.0651 C   0  0  0  0  0  0  0  0  0  0  0  0
   -2.7527   -0.0127   -1.4143 C   0  0  0  0  0  0  0  0  0  0  0  0
    0.8136    0.3196    1.5916 H   0  0  0  0  0  0  0  0  0  0  0  0
    0.8064    2.3843    0.2035 H   0  0  0  0  0  0  0  0  0  0  0  0
    1.1512    1.4212   -1.2784 H   0  0  0  0  0  0  0  0  0  0  0  0
    2.9802    1.6328    1.2016 H   0  0  0  0  0  0  0  0  0  0  0  0
    3.2425    2.4184   -0.3978 H   0  0  0  0  0  0  0  0  0  0  0  0
   -1.4370   -0.4982    2.1926 H   0  0  0  0  0  0  0  0  0  0  0  0
   -1.7683    1.2224    1.7761 H   0  0  0  0  0  0  0  0  0  0  0  0
    4.6019    0.3148   -0.1951 H   0  0  0  0  0  0  0  0  0  0  0  0
    3.3725    0.1770   -1.5046 H   0  0  0  0  0  0  0  0  0  0  0  0
    3.1246   -0.9391    1.3681 H   0  0  0  0  0  0  0  0  0  0  0  0
    3.4043   -1.9110   -0.1258 H   0  0  0  0  0  0  0  0  0  0  0  0
   -3.2489   -1.3490    0.8476 H   0  0  0  0  0  0  0  0  0  0  0  0
   -3.8920   -0.0096    1.8677 H   0  0  0  0  0  0  0  0  0  0  0  0
   -3.5375    1.5500   -0.1018 H   0  0  0  0  0  0  0  0  0  0  0  0
   -4.7058    0.2354   -0.4971 H   0  0  0  0  0  0  0  0  0  0  0  0
   -0.5792   -0.0781   -1.8872 H   0  0  0  0  0  0  0  0  0  0  0  0
   -2.9497    0.6638   -2.2731 H   0  0  0  0  0  0  0  0  0  0  0  0
   -3.0043   -1.0500   -1.7230 H   0  0  0  0  0  0  0  0  0  0  0  0
  1  8  2  0  0  0  0
  2  3  1  0  0  0  0
  2  4  1  0  0  0  0
  2  8  1  0  0  0  0
  2 14  1  1  0  0  0
  3  5  1  0  0  0  0
  3 15  1  0  0  0  0
  3 16  1  0  0  0  0
  4  6  1  0  0  0  0
  4 12  2  0  0  0  0
  5  7  1  0  0  0  0
  5 17  1  0  0  0  0
  5 18  1  0  0  0  0
  6 10  1  0  0  0  0
  6 19  1  0  0  0  0
  6 20  1  0  0  0  0
  7  9  1  0  0  0  0
  7 21  1  0  0  0  0
  7 22  1  0  0  0  0
  8  9  1  0  0  0  0
  9 23  1  0  0  0  0
  9 24  1  0  0  0  0
 10 11  1  0  0  0  0
 10 25  1  0  0  0  0
 10 26  1  0  0  0  0
 11 13  1  0  0  0  0
 11 27  1  0  0  0  0
 11 28  1  0  0  0  0
 12 13  1  0  0  0  0
 12 29  1  0  0  0  0
 13 30  1  0  0  0  0
 13 31  1  0  0  0  0
M  END
