
 OpenBabel05252315333D

 15 15  0  0  0  0  0  0  0  0999 V2000
   -0.7533    1.4030   -0.1115 S   0  0  0  0  0  0  0  0  0  0  0  0
    1.8158    0.3941    0.4879 C   0  0  0  0  0  0  0  0  0  0  0  0
    0.3552    0.1831    0.2263 C   0  0  0  0  0  0  0  0  0  0  0  0
    2.6738   -0.3267   -0.5475 C   0  0  0  0  0  0  0  0  0  0  0  0
   -0.3095   -1.0376    0.2292 C   0  0  0  0  0  0  0  0  0  0  0  0
   -1.6765   -0.9189   -0.0450 C   0  0  0  0  0  0  0  0  0  0  0  0
   -2.0880    0.3895   -0.2613 C   0  0  0  0  0  0  0  0  0  0  0  0
    2.0467    1.4803    0.4481 H   0  0  0  0  0  0  0  0  0  0  0  0
    2.0627    0.0179    1.5036 H   0  0  0  0  0  0  0  0  0  0  0  0
    2.4885   -1.4213   -0.5160 H   0  0  0  0  0  0  0  0  0  0  0  0
    3.7476   -0.1448   -0.3313 H   0  0  0  0  0  0  0  0  0  0  0  0
    2.4459    0.0532   -1.5664 H   0  0  0  0  0  0  0  0  0  0  0  0
    0.1755   -1.9851    0.4238 H   0  0  0  0  0  0  0  0  0  0  0  0
   -2.3490   -1.7654   -0.0838 H   0  0  0  0  0  0  0  0  0  0  0  0
   -3.0985    0.7024   -0.4869 H   0  0  0  0  0  0  0  0  0  0  0  0
  1  3  1  0  0  0  0
  1  7  1  0  0  0  0
  2  3  1  0  0  0  0
  2  4  1  0  0  0  0
  2  8  1  0  0  0  0
  2  9  1  0  0  0  0
  3  5  2  0  0  0  0
  4 10  1  0  0  0  0
  4 11  1  0  0  0  0
  4 12  1  0  0  0  0
  5  6  1  0  0  0  0
  5 13  1  0  0  0  0
  6  7  2  0  0  0  0
  6 14  1  0  0  0  0
  7 15  1  0  0  0  0
M  END
