
 OpenBabel08112215593D

 20 20  0  0  1  0  0  0  0  0999 V2000
    3.0786    4.3804    6.3404 C   0  0  0  0  0  0  0  0  0  0  0  0
    3.0282    3.3949    5.1748 C   0  0  0  0  0  0  0  0  0  0  0  0
    3.7746    2.0938    5.4935 C   0  0  2  0  0  0  0  0  0  0  0  0
    5.2080   -0.1999    3.1900 C   0  0  0  0  0  0  0  0  0  0  0  0
    5.8146    1.3726    5.0574 C   0  0  0  0  0  0  0  0  0  0  0  0
    4.9350    1.1383    3.8711 C   0  0  2  0  0  0  0  0  0  0  0  0
    5.1413    2.3666    5.7567 O   0  0  0  0  0  0  0  0  0  0  0  0
    3.6494    1.2011    4.3990 O   0  0  0  0  0  0  0  0  0  0  0  0
    2.6154    3.9314    7.2447 H   0  0  0  0  0  0  0  0  0  0  0  0
    4.1282    4.6620    6.5693 H   0  0  0  0  0  0  0  0  0  0  0  0
    2.5174    5.3004    6.0731 H   0  0  0  0  0  0  0  0  0  0  0  0
    3.4752    3.8701    4.2746 H   0  0  0  0  0  0  0  0  0  0  0  0
    1.9643    3.1573    4.9568 H   0  0  0  0  0  0  0  0  0  0  0  0
    3.3298    1.6100    6.3913 H   0  0  0  0  0  0  0  0  0  0  0  0
    4.5063   -0.3359    2.3403 H   0  0  0  0  0  0  0  0  0  0  0  0
    6.2481   -0.2235    2.8008 H   0  0  0  0  0  0  0  0  0  0  0  0
    5.0678   -1.0387    3.9049 H   0  0  0  0  0  0  0  0  0  0  0  0
    5.8715    0.4712    5.7108 H   0  0  0  0  0  0  0  0  0  0  0  0
    6.8361    1.6834    4.7513 H   0  0  0  0  0  0  0  0  0  0  0  0
    5.0524    1.9697    3.1378 H   0  0  0  0  0  0  0  0  0  0  0  0
  1  2  1  0  0  0  0
  1  9  1  0  0  0  0
  1 10  1  0  0  0  0
  1 11  1  0  0  0  0
  2 12  1  0  0  0  0
  2 13  1  0  0  0  0
  3  2  1  0  0  0  0
  3  8  1  0  0  0  0
  3 14  1  1  0  0  0
  4 15  1  0  0  0  0
  4 16  1  0  0  0  0
  4 17  1  0  0  0  0
  5  7  1  0  0  0  0
  5 18  1  0  0  0  0
  5 19  1  0  0  0  0
  6  5  1  0  0  0  0
  6  4  1  0  0  0  0
  6 20  1  6  0  0  0
  7  3  1  0  0  0  0
  8  6  1  0  0  0  0
M  END
