
 OpenBabel10222209043D

 16 15  0  0  0  0  0  0  0  0999 V2000
   -1.1623    0.2945   -0.0352 O   0  0  0  0  0  0  0  0  0  0  0  0
    2.4256   -0.0938   -0.1639 O   0  0  0  0  0  0  0  0  0  0  0  0
    0.0604   -0.4093   -0.0755 C   0  0  0  0  0  0  0  0  0  0  0  0
   -2.2319   -0.6250    0.0093 C   0  0  0  0  0  0  0  0  0  0  0  0
    1.2063    0.5933   -0.1237 C   0  0  0  0  0  0  0  0  0  0  0  0
   -3.5436    0.1442    0.0529 C   0  0  0  0  0  0  0  0  0  0  0  0
    0.1871   -1.0323    0.8399 H   0  0  0  0  0  0  0  0  0  0  0  0
    0.1202   -1.0439   -0.9897 H   0  0  0  0  0  0  0  0  0  0  0  0
   -2.2432   -1.2649   -0.9025 H   0  0  0  0  0  0  0  0  0  0  0  0
   -2.1762   -1.2543    0.9268 H   0  0  0  0  0  0  0  0  0  0  0  0
    1.1642    1.2334    0.7861 H   0  0  0  0  0  0  0  0  0  0  0  0
    1.0976    1.2218   -1.0361 H   0  0  0  0  0  0  0  0  0  0  0  0
   -4.3959   -0.5669    0.0882 H   0  0  0  0  0  0  0  0  0  0  0  0
   -3.5761    0.7903    0.9558 H   0  0  0  0  0  0  0  0  0  0  0  0
   -3.6423    0.7799   -0.8527 H   0  0  0  0  0  0  0  0  0  0  0  0
    3.1322    0.6024   -0.1942 H   0  0  0  0  0  0  0  0  0  0  0  0
  1  3  1  0  0  0  0
  1  4  1  0  0  0  0
  2  5  1  0  0  0  0
  2 16  1  0  0  0  0
  3  5  1  0  0  0  0
  3  7  1  0  0  0  0
  3  8  1  0  0  0  0
  4  6  1  0  0  0  0
  4  9  1  0  0  0  0
  4 10  1  0  0  0  0
  5 11  1  0  0  0  0
  5 12  1  0  0  0  0
  6 13  1  0  0  0  0
  6 14  1  0  0  0  0
  6 15  1  0  0  0  0
M  END
