
 OpenBabel05252315393D

 22 21  0  0  0  0  0  0  0  0999 V2000
   -2.1182    4.4044   -1.9589 O   0  0  0  0  0  0  0  0  0  0  0  0
    1.1287    1.5383   -0.1149 C   0  0  0  0  0  0  0  0  0  0  0  0
   -0.2743    1.8306   -0.6604 C   0  0  0  0  0  0  0  0  0  0  0  0
    1.4929    0.0603   -0.2973 C   0  0  0  0  0  0  0  0  0  0  0  0
   -0.6346    3.3116   -0.4827 C   0  0  0  0  0  0  0  0  0  0  0  0
    2.8886   -0.2342    0.2446 C   0  0  0  0  0  0  0  0  0  0  0  0
   -2.0045    3.6181   -1.0309 C   0  0  0  0  0  0  0  0  0  0  0  0
   -3.2399    2.9936   -0.4515 C   0  0  0  0  0  0  0  0  0  0  0  0
    1.8711    2.1677   -0.6537 H   0  0  0  0  0  0  0  0  0  0  0  0
    1.1616    1.7935    0.9675 H   0  0  0  0  0  0  0  0  0  0  0  0
   -0.3079    1.5758   -1.7429 H   0  0  0  0  0  0  0  0  0  0  0  0
   -1.0094    1.1944   -0.1222 H   0  0  0  0  0  0  0  0  0  0  0  0
    0.7573   -0.5754    0.2423 H   0  0  0  0  0  0  0  0  0  0  0  0
    1.4652   -0.2008   -1.3778 H   0  0  0  0  0  0  0  0  0  0  0  0
    0.1208    3.9276   -1.0196 H   0  0  0  0  0  0  0  0  0  0  0  0
   -0.6081    3.5869    0.5938 H   0  0  0  0  0  0  0  0  0  0  0  0
    2.9382   -0.0025    1.3299 H   0  0  0  0  0  0  0  0  0  0  0  0
    3.1251   -1.3094    0.0994 H   0  0  0  0  0  0  0  0  0  0  0  0
    3.6477    0.3727   -0.2934 H   0  0  0  0  0  0  0  0  0  0  0  0
   -3.9183    3.7904   -0.0812 H   0  0  0  0  0  0  0  0  0  0  0  0
   -3.7623    2.4052   -1.2346 H   0  0  0  0  0  0  0  0  0  0  0  0
   -2.9944    2.3237    0.3982 H   0  0  0  0  0  0  0  0  0  0  0  0
  1  7  2  0  0  0  0
  2  3  1  0  0  0  0
  2  4  1  0  0  0  0
  2  9  1  0  0  0  0
  2 10  1  0  0  0  0
  3  5  1  0  0  0  0
  3 11  1  0  0  0  0
  3 12  1  0  0  0  0
  4  6  1  0  0  0  0
  4 13  1  0  0  0  0
  4 14  1  0  0  0  0
  5  7  1  0  0  0  0
  5 15  1  0  0  0  0
  5 16  1  0  0  0  0
  6 17  1  0  0  0  0
  6 18  1  0  0  0  0
  6 19  1  0  0  0  0
  7  8  1  0  0  0  0
  8 20  1  0  0  0  0
  8 21  1  0  0  0  0
  8 22  1  0  0  0  0
M  END
