
 OpenBabel05242317553D

 19 18  0  0  0  0  0  0  0  0999 V2000
    1.6550   -1.2826    0.0179 O   0  0  0  0  0  0  0  0  0  0  0  0
   -0.9062   -0.2350    0.0078 C   0  0  0  0  0  0  0  0  0  0  0  0
   -2.2076    0.5753    0.0005 C   0  0  0  0  0  0  0  0  0  0  0  0
    0.3191    0.6913    0.0018 C   0  0  0  0  0  0  0  0  0  0  0  0
   -3.4275   -0.3414    0.0065 C   0  0  0  0  0  0  0  0  0  0  0  0
    1.6283   -0.0601    0.0086 C   0  0  0  0  0  0  0  0  0  0  0  0
    2.9159    0.7058    0.0039 C   0  0  0  0  0  0  0  0  0  0  0  0
   -0.8767   -0.8880   -0.8926 H   0  0  0  0  0  0  0  0  0  0  0  0
   -0.8782   -0.8742    0.9180 H   0  0  0  0  0  0  0  0  0  0  0  0
   -2.2459    1.2290    0.8992 H   0  0  0  0  0  0  0  0  0  0  0  0
   -2.2444    1.2153   -0.9080 H   0  0  0  0  0  0  0  0  0  0  0  0
    0.2870    1.3315   -0.9065 H   0  0  0  0  0  0  0  0  0  0  0  0
    0.2854    1.3453    0.9001 H   0  0  0  0  0  0  0  0  0  0  0  0
   -3.4276   -0.9781    0.9168 H   0  0  0  0  0  0  0  0  0  0  0  0
   -4.3536    0.2713    0.0011 H   0  0  0  0  0  0  0  0  0  0  0  0
   -3.4261   -0.9919   -0.8940 H   0  0  0  0  0  0  0  0  0  0  0  0
    2.9699    1.3396   -0.9058 H   0  0  0  0  0  0  0  0  0  0  0  0
    2.9683    1.3533    0.9040 H   0  0  0  0  0  0  0  0  0  0  0  0
    3.7856    0.0143    0.0099 H   0  0  0  0  0  0  0  0  0  0  0  0
  1  6  2  0  0  0  0
  2  3  1  0  0  0  0
  2  4  1  0  0  0  0
  2  8  1  0  0  0  0
  2  9  1  0  0  0  0
  3  5  1  0  0  0  0
  3 10  1  0  0  0  0
  3 11  1  0  0  0  0
  4  6  1  0  0  0  0
  4 12  1  0  0  0  0
  4 13  1  0  0  0  0
  5 14  1  0  0  0  0
  5 15  1  0  0  0  0
  5 16  1  0  0  0  0
  6  7  1  0  0  0  0
  7 17  1  0  0  0  0
  7 18  1  0  0  0  0
  7 19  1  0  0  0  0
M  END
