
 OpenBabel10232210483D

 25 25  0  0  0  0  0  0  0  0999 V2000
    0.9700   -2.3853   -0.0243 O   0  0  0  0  0  0  0  0  0  0  0  0
    2.0205    0.3016    0.0138 C   0  0  0  0  0  0  0  0  0  0  0  0
    0.5327   -0.0266   -0.0013 C   0  0  0  0  0  0  0  0  0  0  0  0
    2.3997    1.0661    1.2886 C   0  0  0  0  0  0  0  0  0  0  0  0
    2.4192    1.0942   -1.2377 C   0  0  0  0  0  0  0  0  0  0  0  0
   -0.4234    1.0102    0.0029 C   0  0  0  0  0  0  0  0  0  0  0  0
    0.0836   -1.3668   -0.0197 C   0  0  0  0  0  0  0  0  0  0  0  0
   -1.7959    0.7262   -0.0108 C   0  0  0  0  0  0  0  0  0  0  0  0
   -1.2918   -1.6440   -0.0334 C   0  0  0  0  0  0  0  0  0  0  0  0
   -2.2245   -0.6068   -0.0290 C   0  0  0  0  0  0  0  0  0  0  0  0
   -2.7882    1.8516   -0.0058 C   0  0  0  0  0  0  0  0  0  0  0  0
    2.6194   -0.6342    0.0080 H   0  0  0  0  0  0  0  0  0  0  0  0
    1.8709    2.0405    1.3500 H   0  0  0  0  0  0  0  0  0  0  0  0
    3.4933    1.2607    1.3058 H   0  0  0  0  0  0  0  0  0  0  0  0
    2.1407    0.4613    2.1839 H   0  0  0  0  0  0  0  0  0  0  0  0
    2.1742    0.5096   -2.1501 H   0  0  0  0  0  0  0  0  0  0  0  0
    3.5129    1.2890   -1.2337 H   0  0  0  0  0  0  0  0  0  0  0  0
    1.8912    2.0698   -1.2856 H   0  0  0  0  0  0  0  0  0  0  0  0
   -0.1039    2.0447    0.0169 H   0  0  0  0  0  0  0  0  0  0  0  0
   -1.6408   -2.6690   -0.0475 H   0  0  0  0  0  0  0  0  0  0  0  0
   -3.2806   -0.8462   -0.0397 H   0  0  0  0  0  0  0  0  0  0  0  0
   -2.6341    2.4887   -0.9022 H   0  0  0  0  0  0  0  0  0  0  0  0
   -3.8334    1.4758   -0.0181 H   0  0  0  0  0  0  0  0  0  0  0  0
   -2.6480    2.4685    0.9067 H   0  0  0  0  0  0  0  0  0  0  0  0
    0.6939   -3.3129   -0.0368 H   0  0  0  0  0  0  0  0  0  0  0  0
  1  7  1  0  0  0  0
  1 25  1  0  0  0  0
  2  3  1  0  0  0  0
  2  4  1  0  0  0  0
  2  5  1  0  0  0  0
  2 12  1  0  0  0  0
  3  6  1  0  0  0  0
  3  7  2  0  0  0  0
  4 13  1  0  0  0  0
  4 14  1  0  0  0  0
  4 15  1  0  0  0  0
  5 16  1  0  0  0  0
  5 17  1  0  0  0  0
  5 18  1  0  0  0  0
  6  8  2  0  0  0  0
  6 19  1  0  0  0  0
  7  9  1  0  0  0  0
  8 10  1  0  0  0  0
  8 11  1  0  0  0  0
  9 10  2  0  0  0  0
  9 20  1  0  0  0  0
 10 21  1  0  0  0  0
 11 22  1  0  0  0  0
 11 23  1  0  0  0  0
 11 24  1  0  0  0  0
M  END
