
 OpenBabel05302317203D

 27 26  0  0  1  0  0  0  0  0999 V2000
    2.7869    1.3166    5.4140 O   0  0  0  0  0  0  0  0  0  0  0  0
    1.0823    1.1926    2.0286 C   0  0  0  0  0  0  0  0  0  0  0  0
    2.2004    1.0394    3.0885 C   0  0  2  0  0  0  0  0  0  0  0  0
   -0.1472    0.3075    2.2926 C   0  0  0  0  0  0  0  0  0  0  0  0
   -1.1766    0.4509    1.1644 C   0  0  0  0  0  0  0  0  0  0  0  0
    1.7418    1.4798    4.4943 C   0  0  0  0  0  0  0  0  0  0  0  0
    3.4240    1.8611    2.6497 C   0  0  0  0  0  0  0  0  0  0  0  0
   -2.4014   -0.4351    1.4208 C   0  0  0  0  0  0  0  0  0  0  0  0
   -3.4274   -0.2946    0.3001 C   0  0  0  0  0  0  0  0  0  0  0  0
    1.5019    0.8968    1.0411 H   0  0  0  0  0  0  0  0  0  0  0  0
    0.7671    2.2579    1.9661 H   0  0  0  0  0  0  0  0  0  0  0  0
    2.5048   -0.0302    3.1311 H   0  0  0  0  0  0  0  0  0  0  0  0
    0.1759   -0.7547    2.3594 H   0  0  0  0  0  0  0  0  0  0  0  0
   -0.6333    0.5991    3.2463 H   0  0  0  0  0  0  0  0  0  0  0  0
   -0.7082    0.1565    0.1992 H   0  0  0  0  0  0  0  0  0  0  0  0
   -1.5000    1.5131    1.0958 H   0  0  0  0  0  0  0  0  0  0  0  0
    1.4323    2.5492    4.4620 H   0  0  0  0  0  0  0  0  0  0  0  0
    0.8871    0.8546    4.8269 H   0  0  0  0  0  0  0  0  0  0  0  0
    4.2637    1.7291    3.3645 H   0  0  0  0  0  0  0  0  0  0  0  0
    3.7770    1.5234    1.6519 H   0  0  0  0  0  0  0  0  0  0  0  0
    3.1713    2.9418    2.5914 H   0  0  0  0  0  0  0  0  0  0  0  0
   -2.0856   -1.4992    1.4867 H   0  0  0  0  0  0  0  0  0  0  0  0
   -2.8786   -0.1444    2.3821 H   0  0  0  0  0  0  0  0  0  0  0  0
   -2.9829   -0.6004   -0.6710 H   0  0  0  0  0  0  0  0  0  0  0  0
   -4.3014   -0.9459    0.5118 H   0  0  0  0  0  0  0  0  0  0  0  0
   -3.7772    0.7572    0.2265 H   0  0  0  0  0  0  0  0  0  0  0  0
    2.4473    1.6565    6.2824 H   0  0  0  0  0  0  0  0  0  0  0  0
  1  6  1  0  0  0  0
  1 27  1  0  0  0  0
  2  3  1  0  0  0  0
  2  4  1  0  0  0  0
  2 10  1  0  0  0  0
  2 11  1  0  0  0  0
  3  6  1  0  0  0  0
  3  7  1  0  0  0  0
  3 12  1  1  0  0  0
  4  5  1  0  0  0  0
  4 13  1  0  0  0  0
  4 14  1  0  0  0  0
  5  8  1  0  0  0  0
  5 15  1  0  0  0  0
  5 16  1  0  0  0  0
  6 17  1  0  0  0  0
  6 18  1  0  0  0  0
  7 19  1  0  0  0  0
  7 20  1  0  0  0  0
  7 21  1  0  0  0  0
  8  9  1  0  0  0  0
  8 22  1  0  0  0  0
  8 23  1  0  0  0  0
  9 24  1  0  0  0  0
  9 25  1  0  0  0  0
  9 26  1  0  0  0  0
M  END
