  2-METHYL-4-ETHYLHEPTANE.mol	52896-88-5
  NIST    08031214513D 1   1.00000  -394.33460
Copyright by the U.S. Sec. Commerce on behalf of U.S.A. All rights reserved.
 32 31  0  0  0  0  0  0  0  0999 V2000
   -0.7503    0.3663    0.1554 C    0  0  0  0  0  0  0  0  0  0  0  0
    0.7225    0.7760    0.2630 C    0  0  0  0  0  0  0  0  0  0  0  0
    0.9555    2.2586   -0.0624 C    0  0  0  0  0  0  0  0  0  0  0  0
    2.4294    2.7194    0.0069 C    0  0  0  0  0  0  0  0  0  0  0  0
    3.2170    2.2274   -1.2296 C    0  0  0  0  0  0  0  0  0  0  0  0
    2.5275    4.2553    0.1507 C    0  0  0  0  0  0  0  0  0  0  0  0
    4.7569    2.2262   -1.1182 C    0  0  0  0  0  0  0  0  0  0  0  0
    5.2682    1.1735   -0.1220 C    0  0  0  0  0  0  0  0  0  0  0  0
    5.3901    2.0034   -2.5006 C    0  0  0  0  0  0  0  0  0  0  0  0
    2.1384    4.7969    1.5316 C    0  0  0  0  0  0  0  0  0  0  0  0
   -0.8914   -0.6917    0.4050 H    0  0  0  0  0  0  0  0  0  0  0  0
   -1.3769    0.9556    0.8364 H    0  0  0  0  0  0  0  0  0  0  0  0
   -1.1317    0.5225   -0.8612 H    0  0  0  0  0  0  0  0  0  0  0  0
    1.3218    0.1423   -0.4041 H    0  0  0  0  0  0  0  0  0  0  0  0
    1.0852    0.5726    1.2807 H    0  0  0  0  0  0  0  0  0  0  0  0
    0.3510    2.8564    0.6328 H    0  0  0  0  0  0  0  0  0  0  0  0
    0.5627    2.4794   -1.0671 H    0  0  0  0  0  0  0  0  0  0  0  0
    2.8738    2.2716    0.9093 H    0  0  0  0  0  0  0  0  0  0  0  0
    2.9012    1.2062   -1.4861 H    0  0  0  0  0  0  0  0  0  0  0  0
    2.9235    2.8535   -2.0862 H    0  0  0  0  0  0  0  0  0  0  0  0
    3.5544    4.5765   -0.0666 H    0  0  0  0  0  0  0  0  0  0  0  0
    1.8974    4.7220   -0.6211 H    0  0  0  0  0  0  0  0  0  0  0  0
    5.0839    3.2140   -0.7611 H    0  0  0  0  0  0  0  0  0  0  0  0
    6.3624    1.1978   -0.0536 H    0  0  0  0  0  0  0  0  0  0  0  0
    4.8715    1.3301    0.8870 H    0  0  0  0  0  0  0  0  0  0  0  0
    4.9781    0.1635   -0.4408 H    0  0  0  0  0  0  0  0  0  0  0  0
    6.4852    2.0119   -2.4437 H    0  0  0  0  0  0  0  0  0  0  0  0
    5.0840    2.7806   -3.2110 H    0  0  0  0  0  0  0  0  0  0  0  0
    5.0874    1.0338   -2.9178 H    0  0  0  0  0  0  0  0  0  0  0  0
    2.2332    5.8884    1.5661 H    0  0  0  0  0  0  0  0  0  0  0  0
    1.1041    4.5508    1.7981 H    0  0  0  0  0  0  0  0  0  0  0  0
    2.7878    4.3828    2.3130 H    0  0  0  0  0  0  0  0  0  0  0  0
  1  2  1  0
  2  3  1  0
  3  4  1  0
  4  5  1  0
  4  6  1  0
  5  7  1  0
  6 10  1  0
  7  8  1  0
  7  9  1  0
  1 11  1  0
  1 12  1  0
  1 13  1  0
  2 14  1  0
  2 15  1  0
  3 16  1  0
  3 17  1  0
  4 18  1  0
  5 19  1  0
  5 20  1  0
  6 21  1  0
  6 22  1  0
  7 23  1  0
  8 24  1  0
  8 25  1  0
  8 26  1  0
  9 27  1  0
  9 28  1  0
  9 29  1  0
 10 30  1  0
 10 31  1  0
 10 32  1  0
M  END
