
 OpenBabel10222214023D

 19 20  0  0  0  0  0  0  0  0999 V2000
    5.9280    0.8013    3.0398 C   0  0  0  0  0  0  0  0  0  0  0  0
    7.1499    0.9466    3.5911 O   0  0  0  0  0  0  0  0  0  0  0  0
    4.8159    0.6220    3.8703 C   0  0  0  0  0  0  0  0  0  0  0  0
    5.7624    0.8282    1.6471 C   0  0  0  0  0  0  0  0  0  0  0  0
    3.5356    0.4689    3.3161 C   0  0  0  0  0  0  0  0  0  0  0  0
    4.4922    0.6768    1.0840 C   0  0  0  0  0  0  0  0  0  0  0  0
    3.3722    0.4966    1.9091 C   0  0  0  0  0  0  0  0  0  0  0  0
    2.4146    0.2886    4.1415 C   0  0  0  0  0  0  0  0  0  0  0  0
    2.0915    0.3435    1.3555 C   0  0  0  0  0  0  0  0  0  0  0  0
    1.1447    0.1373    3.5770 C   0  0  0  0  0  0  0  0  0  0  0  0
    0.9837    0.1647    2.1891 C   0  0  0  0  0  0  0  0  0  0  0  0
    7.9453    1.0728    3.0543 H   0  0  0  0  0  0  0  0  0  0  0  0
    4.9537    0.6026    4.9453 H   0  0  0  0  0  0  0  0  0  0  0  0
    6.6186    0.9666    0.9989 H   0  0  0  0  0  0  0  0  0  0  0  0
    4.3859    0.7006    0.0059 H   0  0  0  0  0  0  0  0  0  0  0  0
    2.5200    0.2647    5.2196 H   0  0  0  0  0  0  0  0  0  0  0  0
    1.9476    0.3621    0.2817 H   0  0  0  0  0  0  0  0  0  0  0  0
    0.2829   -0.0015    4.2170 H   0  0  0  0  0  0  0  0  0  0  0  0
   -0.0022    0.0470    1.7582 H   0  0  0  0  0  0  0  0  0  0  0  0
  1  2  1  0  0  0  0
  1  3  2  0  0  0  0
  2 12  1  0  0  0  0
  3  5  1  0  0  0  0
  3 13  1  0  0  0  0
  4  1  1  0  0  0  0
  4 14  1  0  0  0  0
  5  8  1  0  0  0  0
  6  4  2  0  0  0  0
  6 15  1  0  0  0  0
  7  5  2  0  0  0  0
  7  6  1  0  0  0  0
  8 10  2  0  0  0  0
  8 16  1  0  0  0  0
  9  7  1  0  0  0  0
  9 17  1  0  0  0  0
 10 11  1  0  0  0  0
 10 18  1  0  0  0  0
 11  9  2  0  0  0  0
 11 19  1  0  0  0  0
M  END
