  2-NONANOL.mol	628-99-9
  NIST    11121313213D 1   1.00000  -430.23456
Copyright by the U.S. Sec. Commerce on behalf of U.S.A. All rights reserved.
 30 29  0  0  0  0  0  0  0  0999 V2000
   68.9621   30.0437   -0.0296 C    0  0  0  0  0  0  0  0  0  0  0  0
   67.6497   29.2483   -0.0587 C    0  0  0  0  0  0  0  0  0  0  0  0
   67.8707   27.7311   -0.0872 C    0  0  0  0  0  0  0  0  0  0  0  0
   68.7560   31.5635   -0.0056 C    0  0  0  0  0  0  0  0  0  0  0  0
   66.5901   26.8952   -0.0251 C    0  0  0  0  0  0  0  0  0  0  0  0
   70.0666   32.3604    0.0203 C    0  0  0  0  0  0  0  0  0  0  0  0
   65.6992   27.0384   -1.2610 C    0  0  0  0  0  0  0  0  0  0  0  0
   67.0201   25.5385    0.1325 O    0  0  0  0  0  0  0  0  0  0  0  0
   69.8609   33.8803    0.0428 C    0  0  0  0  0  0  0  0  0  0  0  0
   71.1747   34.6684    0.0660 C    0  0  0  0  0  0  0  0  0  0  0  0
   69.5494   29.7420    0.8502 H    0  0  0  0  0  0  0  0  0  0  0  0
   69.5692   29.7730   -0.9060 H    0  0  0  0  0  0  0  0  0  0  0  0
   67.0636   29.5607   -0.9343 H    0  0  0  0  0  0  0  0  0  0  0  0
   67.0469   29.5141    0.8228 H    0  0  0  0  0  0  0  0  0  0  0  0
   68.4938   27.4342    0.7664 H    0  0  0  0  0  0  0  0  0  0  0  0
   68.4276   27.4462   -0.9909 H    0  0  0  0  0  0  0  0  0  0  0  0
   68.1666   31.8637   -0.8850 H    0  0  0  0  0  0  0  0  0  0  0  0
   68.1495   31.8338    0.8718 H    0  0  0  0  0  0  0  0  0  0  0  0
   66.0144   27.2062    0.8650 H    0  0  0  0  0  0  0  0  0  0  0  0
   70.6568   32.0620    0.8998 H    0  0  0  0  0  0  0  0  0  0  0  0
   70.6738   32.0905   -0.8568 H    0  0  0  0  0  0  0  0  0  0  0  0
   64.8156   26.3915   -1.1799 H    0  0  0  0  0  0  0  0  0  0  0  0
   65.3394   28.0656   -1.3868 H    0  0  0  0  0  0  0  0  0  0  0  0
   66.2511   26.7476   -2.1623 H    0  0  0  0  0  0  0  0  0  0  0  0
   66.2266   24.9811    0.1575 H    0  0  0  0  0  0  0  0  0  0  0  0
   69.2708   34.1785   -0.8356 H    0  0  0  0  0  0  0  0  0  0  0  0
   69.2563   34.1508    0.9202 H    0  0  0  0  0  0  0  0  0  0  0  0
   70.9939   35.7493    0.0805 H    0  0  0  0  0  0  0  0  0  0  0  0
   71.7714   34.4187    0.9521 H    0  0  0  0  0  0  0  0  0  0  0  0
   71.7865   34.4449   -0.8168 H    0  0  0  0  0  0  0  0  0  0  0  0
  1  2  1  0
  1  4  1  0
  2  3  1  0
  3  5  1  0
  4  6  1  0
  5  7  1  0
  5  8  1  0
  6  9  1  0
  9 10  1  0
  1 11  1  0
  1 12  1  0
  2 13  1  0
  2 14  1  0
  3 15  1  0
  3 16  1  0
  4 17  1  0
  4 18  1  0
  5 19  1  0
  6 20  1  0
  6 21  1  0
  7 22  1  0
  7 23  1  0
  7 24  1  0
  8 25  1  0
  9 26  1  0
  9 27  1  0
 10 28  1  0
 10 29  1  0
 10 30  1  0
M  END
