
 OpenBabel05302317463D

 17 18  0  0  1  0  0  0  0  0999 V2000
    0.0231   -1.1095   -0.2982 C   0  0  2  0  0  0  0  0  0  0  0  0
    0.0228    1.1095   -0.2982 C   0  0  1  0  0  0  0  0  0  0  0  0
    0.0375   -0.0000   -1.3490 C   0  0  0  0  0  0  0  0  0  0  0  0
   -1.2633   -0.7710    0.4775 C   0  0  0  0  0  0  0  0  0  0  0  0
   -1.2635    0.7707    0.4775 C   0  0  0  0  0  0  0  0  0  0  0  0
    1.1930   -0.6879    0.5404 C   0  0  0  0  0  0  0  0  0  0  0  0
    1.1928    0.6882    0.5404 C   0  0  0  0  0  0  0  0  0  0  0  0
    0.0719   -2.1702   -0.6233 H   0  0  0  0  0  0  0  0  0  0  0  0
    0.0714    2.1702   -0.6233 H   0  0  0  0  0  0  0  0  0  0  0  0
    0.9634    0.0001   -1.9714 H   0  0  0  0  0  0  0  0  0  0  0  0
   -0.8506   -0.0001   -2.0222 H   0  0  0  0  0  0  0  0  0  0  0  0
   -1.2782   -1.2238    1.4928 H   0  0  0  0  0  0  0  0  0  0  0  0
   -2.1444   -1.1315   -0.0993 H   0  0  0  0  0  0  0  0  0  0  0  0
   -2.1447    1.1310   -0.0994 H   0  0  0  0  0  0  0  0  0  0  0  0
   -1.2785    1.2236    1.4928 H   0  0  0  0  0  0  0  0  0  0  0  0
    1.9550   -1.3180    0.9789 H   0  0  0  0  0  0  0  0  0  0  0  0
    1.9547    1.3185    0.9789 H   0  0  0  0  0  0  0  0  0  0  0  0
  1  3  1  0  0  0  0
  1  4  1  0  0  0  0
  1  6  1  0  0  0  0
  1  8  1  6  0  0  0
  2  3  1  0  0  0  0
  2  5  1  0  0  0  0
  2  7  1  0  0  0  0
  2  9  1  6  0  0  0
  3 10  1  0  0  0  0
  3 11  1  0  0  0  0
  4  5  1  0  0  0  0
  4 12  1  0  0  0  0
  4 13  1  0  0  0  0
  5 14  1  0  0  0  0
  5 15  1  0  0  0  0
  6  7  2  0  0  0  0
  6 16  1  0  0  0  0
  7 17  1  0  0  0  0
M  END
