
 OpenBabel05242318113D

 16 15  0  0  0  0  0  0  0  0999 V2000
    1.1990   -1.2349    0.0110 O   0  0  0  0  0  0  0  0  0  0  0  0
   -1.4450   -0.4211    0.0054 C   0  0  0  0  0  0  0  0  0  0  0  0
   -0.3083    0.6115    0.0001 C   0  0  0  0  0  0  0  0  0  0  0  0
   -2.8096    0.2619    0.0010 C   0  0  0  0  0  0  0  0  0  0  0  0
    1.0630   -0.0196    0.0041 C   0  0  0  0  0  0  0  0  0  0  0  0
    2.2769    0.8585   -0.0002 C   0  0  0  0  0  0  0  0  0  0  0  0
   -0.3989    1.2479   -0.9069 H   0  0  0  0  0  0  0  0  0  0  0  0
   -0.3996    1.2580    0.8998 H   0  0  0  0  0  0  0  0  0  0  0  0
   -1.3661   -1.0682   -0.8955 H   0  0  0  0  0  0  0  0  0  0  0  0
   -1.3668   -1.0582    0.9135 H   0  0  0  0  0  0  0  0  0  0  0  0
   -2.9241    0.8901   -0.9080 H   0  0  0  0  0  0  0  0  0  0  0  0
   -2.9248    0.9002    0.9029 H   0  0  0  0  0  0  0  0  0  0  0  0
   -3.6108   -0.5069    0.0050 H   0  0  0  0  0  0  0  0  0  0  0  0
    2.2720    1.5064    0.9010 H   0  0  0  0  0  0  0  0  0  0  0  0
    2.2728    1.4963   -0.9087 H   0  0  0  0  0  0  0  0  0  0  0  0
    3.2049    0.2477    0.0036 H   0  0  0  0  0  0  0  0  0  0  0  0
  1  5  2  0  0  0  0
  2  3  1  0  0  0  0
  2  4  1  0  0  0  0
  2  9  1  0  0  0  0
  2 10  1  0  0  0  0
  3  5  1  0  0  0  0
  3  7  1  0  0  0  0
  3  8  1  0  0  0  0
  4 11  1  0  0  0  0
  4 12  1  0  0  0  0
  4 13  1  0  0  0  0
  5  6  1  0  0  0  0
  6 14  1  0  0  0  0
  6 15  1  0  0  0  0
  6 16  1  0  0  0  0
M  END
