  3,4,4-TRIMETHYLHEPTANE.mol	20278-88-0
  NIST    08091211023D 1   1.00000  -394.32745
Copyright by the U.S. Sec. Commerce on behalf of U.S.A. All rights reserved.
 32 31  0  0  0  0  0  0  0  0999 V2000
   -0.1610   37.0169   -0.1452 C    0  0  0  0  0  0  0  0  0  0  0  0
    1.3569   36.8839    0.0284 C    0  0  0  0  0  0  0  0  0  0  0  0
    2.0667   38.2461   -0.0434 C    0  0  0  0  0  0  0  0  0  0  0  0
    3.6232   38.2493    0.0000 C    0  0  0  0  0  0  0  0  0  0  0  0
    4.1241   39.7319    0.1831 C    0  0  0  0  0  0  0  0  0  0  0  0
    4.0936   37.4094    1.2079 C    0  0  0  0  0  0  0  0  0  0  0  0
    4.1856   37.6293   -1.2967 C    0  0  0  0  0  0  0  0  0  0  0  0
    5.6637   39.8865    0.0941 C    0  0  0  0  0  0  0  0  0  0  0  0
    3.4548   40.7398   -0.7721 C    0  0  0  0  0  0  0  0  0  0  0  0
    6.2047   41.1214    0.8270 C    0  0  0  0  0  0  0  0  0  0  0  0
   -0.6575   36.0419   -0.0789 H    0  0  0  0  0  0  0  0  0  0  0  0
   -0.5935   37.6639    0.6282 H    0  0  0  0  0  0  0  0  0  0  0  0
   -0.4135   37.4542   -1.1191 H    0  0  0  0  0  0  0  0  0  0  0  0
    1.7469   36.2103   -0.7460 H    0  0  0  0  0  0  0  0  0  0  0  0
    1.5625   36.3976    0.9899 H    0  0  0  0  0  0  0  0  0  0  0  0
    1.6945   38.8678    0.7856 H    0  0  0  0  0  0  0  0  0  0  0  0
    1.7383   38.7439   -0.9650 H    0  0  0  0  0  0  0  0  0  0  0  0
    3.8304   40.0155    1.2069 H    0  0  0  0  0  0  0  0  0  0  0  0
    5.1805   37.4396    1.3327 H    0  0  0  0  0  0  0  0  0  0  0  0
    3.8173   36.3563    1.0914 H    0  0  0  0  0  0  0  0  0  0  0  0
    3.6417   37.7724    2.1400 H    0  0  0  0  0  0  0  0  0  0  0  0
    3.8911   38.2031   -2.1833 H    0  0  0  0  0  0  0  0  0  0  0  0
    5.2796   37.5817   -1.2778 H    0  0  0  0  0  0  0  0  0  0  0  0
    3.8213   36.6052   -1.4344 H    0  0  0  0  0  0  0  0  0  0  0  0
    6.1635   39.0036    0.5079 H    0  0  0  0  0  0  0  0  0  0  0  0
    5.9624   39.9332   -0.9623 H    0  0  0  0  0  0  0  0  0  0  0  0
    3.8931   41.7360   -0.6491 H    0  0  0  0  0  0  0  0  0  0  0  0
    2.3809   40.8390   -0.5910 H    0  0  0  0  0  0  0  0  0  0  0  0
    3.5938   40.4535   -1.8219 H    0  0  0  0  0  0  0  0  0  0  0  0
    7.2933   41.1950    0.7207 H    0  0  0  0  0  0  0  0  0  0  0  0
    5.7754   42.0534    0.4421 H    0  0  0  0  0  0  0  0  0  0  0  0
    5.9782   41.0723    1.8993 H    0  0  0  0  0  0  0  0  0  0  0  0
  1  2  1  0
  2  3  1  0
  3  4  1  0
  4  5  1  0
  4  6  1  0
  4  7  1  0
  5  8  1  0
  5  9  1  0
  8 10  1  0
  1 11  1  0
  1 12  1  0
  1 13  1  0
  2 14  1  0
  2 15  1  0
  3 16  1  0
  3 17  1  0
  5 18  1  0
  6 19  1  0
  6 20  1  0
  6 21  1  0
  7 22  1  0
  7 23  1  0
  7 24  1  0
  8 25  1  0
  8 26  1  0
  9 27  1  0
  9 28  1  0
  9 29  1  0
 10 30  1  0
 10 31  1  0
 10 32  1  0
M  END
