
 OpenBabel11102310313D

 26 27  0  0  0  0  0  0  0  0999 V2000
   -1.4850   -5.3694   -1.7289 H   0  0  0  0  0  0  0  0  0  0  0  0
   -0.7619   -4.8041   -1.1489 C   0  0  0  0  0  0  0  0  0  0  0  0
   -1.6761   -2.9090   -1.5222 H   0  0  0  0  0  0  0  0  0  0  0  0
    2.4495   -1.5702   -1.3374 H   0  0  0  0  0  0  0  0  0  0  0  0
   -0.8737   -3.4271   -1.0122 C   0  0  0  0  0  0  0  0  0  0  0  0
    0.3113   -5.4790   -0.5522 C   0  0  0  0  0  0  0  0  0  0  0  0
    2.9691    0.0933   -1.0331 H   0  0  0  0  0  0  0  0  0  0  0  0
    2.4581   -0.7694   -0.5943 C   0  0  0  0  0  0  0  0  0  0  0  0
    0.0930   -2.7495   -0.2745 C   0  0  0  0  0  0  0  0  0  0  0  0
    1.3032   -4.8303    0.2047 C   0  0  0  0  0  0  0  0  0  0  0  0
    1.0883   -0.3922   -0.2352 N   0  3  0  0  0  0  0  0  0  0  0  0
    0.0475   -1.2576   -0.1296 C   0  0  0  0  0  0  0  0  0  0  0  0
   -2.9075   -1.2235   -0.4660 H   0  0  0  0  0  0  0  0  0  0  0  0
    1.1424   -3.4473    0.3301 C   0  0  0  0  0  0  0  0  0  0  0  0
    0.6593    0.9026   -0.0327 C   0  0  0  0  0  0  0  0  0  0  0  0
   -1.0425   -0.4890    0.1264 N   0  0  0  0  0  0  0  0  0  0  0  0
    2.9956   -1.0745    0.3063 H   0  0  0  0  0  0  0  0  0  0  0  0
   -0.6827    0.8440    0.1811 C   0  0  0  0  0  0  0  0  0  0  0  0
    1.3741    1.7053   -0.0758 H   0  0  0  0  0  0  0  0  0  0  0  0
   -2.3670   -1.0050    0.4579 C   0  0  0  0  0  0  0  0  0  0  0  0
    1.8642   -2.9254    0.9553 H   0  0  0  0  0  0  0  0  0  0  0  0
   -1.4356    1.5843    0.3875 H   0  0  0  0  0  0  0  0  0  0  0  0
   -2.2788   -1.9028    1.0747 H   0  0  0  0  0  0  0  0  0  0  0  0
   -2.9253   -0.2540    1.0249 H   0  0  0  0  0  0  0  0  0  0  0  0
    2.2799   -5.4388    0.7426 O   0  0  0  0  0  0  0  0  0  0  0  0
    0.3880   -6.5600   -0.6793 H   0  0  0  0  0  0  0  0  0  0  0  0
  2  1  1  0  0  0  0
  5  2  2  0  0  0  0
  5  9  1  0  0  0  0
  5  3  1  0  0  0  0
  6  2  1  0  0  0  0
  6 26  1  0  0  0  0
  8  4  1  0  0  0  0
  8  7  1  0  0  0  0
  8 17  1  0  0  0  0
  9 14  2  0  0  0  0
 10  6  2  0  0  0  0
 10 25  1  0  0  0  0
 11 12  2  0  0  0  0
 11 15  1  0  0  0  0
 11  8  1  0  0  0  0
 12  9  1  0  0  0  0
 14 10  1  0  0  0  0
 14 21  1  0  0  0  0
 15 18  2  0  0  0  0
 15 19  1  0  0  0  0
 16 12  1  0  0  0  0
 16 18  1  0  0  0  0
 16 20  1  0  0  0  0
 18 22  1  0  0  0  0
 20 24  1  0  0  0  0
 20 13  1  0  0  0  0
 20 23  1  0  0  0  0
M  CHG  1  11   1
M  END
