
 OpenBabel05252316043D

 10  9  0  0  0  0  0  0  0  0999 V2000
   -2.2248    0.4655   -0.0074 N   0  0  0  0  0  0  0  0  0  0  0  0
    0.0634   -0.8195   -0.1175 C   0  0  0  0  0  0  0  0  0  0  0  0
    1.1621    0.0319    0.4496 C   0  0  0  0  0  0  0  0  0  0  0  0
    2.2269    0.4177   -0.2634 C   0  0  0  0  0  0  0  0  0  0  0  0
   -1.2146   -0.0985   -0.0547 C   0  0  0  0  0  0  0  0  0  0  0  0
   -0.0109   -1.7499    0.4801 H   0  0  0  0  0  0  0  0  0  0  0  0
    0.2677   -1.1085   -1.1674 H   0  0  0  0  0  0  0  0  0  0  0  0
    1.0862    0.3387    1.4862 H   0  0  0  0  0  0  0  0  0  0  0  0
    2.9947    1.0291    0.2017 H   0  0  0  0  0  0  0  0  0  0  0  0
    2.3523    0.1379   -1.3045 H   0  0  0  0  0  0  0  0  0  0  0  0
  1  5  3  0  0  0  0
  2  3  1  0  0  0  0
  2  5  1  0  0  0  0
  2  6  1  0  0  0  0
  2  7  1  0  0  0  0
  3  4  2  0  0  0  0
  3  8  1  0  0  0  0
  4  9  1  0  0  0  0
  4 10  1  0  0  0  0
M  END
