
 OpenBabel10302115563D

 13 13  0  0  0  0  0  0  0  0999 V2000
    2.6039   -0.3877   -0.1866 Cl  0  0  0  0  0  0  0  0  0  0  0  0
   -2.4172   -1.4380   -0.1810 O   0  0  0  0  0  0  0  0  0  0  0  0
   -1.4392   -0.5110   -0.1376 C   0  0  0  0  0  0  0  0  0  0  0  0
   -0.0876   -0.8889   -0.1798 C   0  0  0  0  0  0  0  0  0  0  0  0
   -1.7775    0.8448   -0.0495 C   0  0  0  0  0  0  0  0  0  0  0  0
    0.9158    0.0863   -0.1338 C   0  0  0  0  0  0  0  0  0  0  0  0
   -0.7742    1.8180   -0.0037 C   0  0  0  0  0  0  0  0  0  0  0  0
    0.5713    1.4398   -0.0457 C   0  0  0  0  0  0  0  0  0  0  0  0
    0.1818   -1.9355   -0.2480 H   0  0  0  0  0  0  0  0  0  0  0  0
   -2.8175    1.1445   -0.0165 H   0  0  0  0  0  0  0  0  0  0  0  0
   -1.0394    2.8651    0.0645 H   0  0  0  0  0  0  0  0  0  0  0  0
    1.3434    2.1977   -0.0099 H   0  0  0  0  0  0  0  0  0  0  0  0
   -2.2263   -2.3849   -0.2418 H   0  0  0  0  0  0  0  0  0  0  0  0
  1  6  1  0  0  0  0
  2  3  1  0  0  0  0
  2 13  1  0  0  0  0
  3  4  2  0  0  0  0
  3  5  1  0  0  0  0
  4  6  1  0  0  0  0
  4  9  1  0  0  0  0
  5  7  2  0  0  0  0
  5 10  1  0  0  0  0
  6  8  2  0  0  0  0
  7  8  1  0  0  0  0
  7 11  1  0  0  0  0
  8 12  1  0  0  0  0
M  END
