
 OpenBabel10302115043D

 12 11  0  0  0  0  0  0  0  0999 V2000
    2.5999    1.6448    1.2302 Cl  0  0  0  0  0  0  0  0  0  0  0  0
   -2.3980    0.6510    0.9394 O   0  0  0  0  0  0  0  0  0  0  0  0
   -0.0467    1.0571    1.0604 C   0  0  0  0  0  0  0  0  0  0  0  0
   -1.1497    0.0350    0.7897 C   0  0  0  0  0  0  0  0  0  0  0  0
    1.3380    0.4292    0.9086 C   0  0  0  0  0  0  0  0  0  0  0  0
   -0.1594    1.4508    2.0943 H   0  0  0  0  0  0  0  0  0  0  0  0
   -0.1471    1.9012    0.3435 H   0  0  0  0  0  0  0  0  0  0  0  0
   -1.0447   -0.3491   -0.2500 H   0  0  0  0  0  0  0  0  0  0  0  0
   -1.0572   -0.8035    1.5163 H   0  0  0  0  0  0  0  0  0  0  0  0
    1.4603   -0.4085    1.6279 H   0  0  0  0  0  0  0  0  0  0  0  0
    1.4726    0.0422   -0.1240 H   0  0  0  0  0  0  0  0  0  0  0  0
   -3.0750   -0.0506    0.7541 H   0  0  0  0  0  0  0  0  0  0  0  0
  1  5  1  0  0  0  0
  2  4  1  0  0  0  0
  2 12  1  0  0  0  0
  3  4  1  0  0  0  0
  3  5  1  0  0  0  0
  3  6  1  0  0  0  0
  3  7  1  0  0  0  0
  4  8  1  0  0  0  0
  4  9  1  0  0  0  0
  5 10  1  0  0  0  0
  5 11  1  0  0  0  0
M  END
