  3-ETHYL-2,2,3-TRIMETHYLPENTANE.mol	52897-17-3
  NIST    07231313323D 1   1.00000  -394.31673
Copyright by the U.S. Sec. Commerce on behalf of U.S.A. All rights reserved.
 32 31  0  0  0  0  0  0  0  0999 V2000
   -0.3940   45.9423    0.1321 C    0  0  0  0  0  0  0  0  0  0  0  0
    0.5986   44.8013    0.4035 C    0  0  0  0  0  0  0  0  0  0  0  0
    2.0561   44.9995   -0.1110 C    0  0  0  0  0  0  0  0  0  0  0  0
    2.8940   43.6490    0.0899 C    0  0  0  0  0  0  0  0  0  0  0  0
    2.0071   45.3534   -1.6198 C    0  0  0  0  0  0  0  0  0  0  0  0
    2.7051   46.2429    0.5788 C    0  0  0  0  0  0  0  0  0  0  0  0
    2.5226   42.5940   -0.9822 C    0  0  0  0  0  0  0  0  0  0  0  0
    2.6393   42.9791    1.4628 C    0  0  0  0  0  0  0  0  0  0  0  0
    4.4132   43.9053   -0.0349 C    0  0  0  0  0  0  0  0  0  0  0  0
    2.8615   46.2857    2.1058 C    0  0  0  0  0  0  0  0  0  0  0  0
   -1.3749   45.6893    0.5510 H    0  0  0  0  0  0  0  0  0  0  0  0
   -0.0798   46.8858    0.5923 H    0  0  0  0  0  0  0  0  0  0  0  0
   -0.5348   46.1243   -0.9384 H    0  0  0  0  0  0  0  0  0  0  0  0
    0.1896   43.8863   -0.0444 H    0  0  0  0  0  0  0  0  0  0  0  0
    0.6159   44.6188    1.4835 H    0  0  0  0  0  0  0  0  0  0  0  0
    3.0055   45.3450   -2.0711 H    0  0  0  0  0  0  0  0  0  0  0  0
    1.5996   46.3583   -1.7707 H    0  0  0  0  0  0  0  0  0  0  0  0
    1.3788   44.6590   -2.1866 H    0  0  0  0  0  0  0  0  0  0  0  0
    3.6861   46.4223    0.1221 H    0  0  0  0  0  0  0  0  0  0  0  0
    2.0997   47.1109    0.2894 H    0  0  0  0  0  0  0  0  0  0  0  0
    3.0092   41.6408   -0.7424 H    0  0  0  0  0  0  0  0  0  0  0  0
    2.8538   42.8837   -1.9841 H    0  0  0  0  0  0  0  0  0  0  0  0
    1.4442   42.4044   -1.0249 H    0  0  0  0  0  0  0  0  0  0  0  0
    3.3187   42.1261    1.5822 H    0  0  0  0  0  0  0  0  0  0  0  0
    2.8091   43.6517    2.3066 H    0  0  0  0  0  0  0  0  0  0  0  0
    1.6192   42.5904    1.5449 H    0  0  0  0  0  0  0  0  0  0  0  0
    4.8036   44.5056    0.7931 H    0  0  0  0  0  0  0  0  0  0  0  0
    4.9514   42.9497   -0.0247 H    0  0  0  0  0  0  0  0  0  0  0  0
    4.6729   44.4130   -0.9706 H    0  0  0  0  0  0  0  0  0  0  0  0
    3.1743   47.2907    2.4140 H    0  0  0  0  0  0  0  0  0  0  0  0
    1.9235   46.0652    2.6273 H    0  0  0  0  0  0  0  0  0  0  0  0
    3.6194   45.5882    2.4745 H    0  0  0  0  0  0  0  0  0  0  0  0
  1  2  1  0
  2  3  1  0
  3  4  1  0
  3  5  1  0
  3  6  1  0
  4  7  1  0
  4  8  1  0
  4  9  1  0
  6 10  1  0
  1 11  1  0
  1 12  1  0
  1 13  1  0
  2 14  1  0
  2 15  1  0
  5 16  1  0
  5 17  1  0
  5 18  1  0
  6 19  1  0
  6 20  1  0
  7 21  1  0
  7 22  1  0
  7 23  1  0
  8 24  1  0
  8 25  1  0
  8 26  1  0
  9 27  1  0
  9 28  1  0
  9 29  1  0
 10 30  1  0
 10 31  1  0
 10 32  1  0
M  END
