  3-METHYL-4-ETHYLHEPTANE.mol	52896-89-6
  NIST    07231305593D 1   1.00000  -394.32935
Copyright by the U.S. Sec. Commerce on behalf of U.S.A. All rights reserved.
 32 31  0  0  0  0  0  0  0  0999 V2000
    0.5952   21.1856    1.4154 C    0  0  0  0  0  0  0  0  0  0  0  0
    1.7494   22.1681    1.1926 C    0  0  0  0  0  0  0  0  0  0  0  0
    1.6886   22.8653   -0.1760 C    0  0  0  0  0  0  0  0  0  0  0  0
    2.8270   23.8925   -0.4309 C    0  0  0  0  0  0  0  0  0  0  0  0
    3.4939   23.7390   -1.8313 C    0  0  0  0  0  0  0  0  0  0  0  0
    2.3709   25.3509   -0.1988 C    0  0  0  0  0  0  0  0  0  0  0  0
    4.2864   22.4227   -1.9961 C    0  0  0  0  0  0  0  0  0  0  0  0
    2.5033   23.9036   -2.9978 C    0  0  0  0  0  0  0  0  0  0  0  0
    5.4891   22.2564   -1.0593 C    0  0  0  0  0  0  0  0  0  0  0  0
    1.9409   25.6786    1.2359 C    0  0  0  0  0  0  0  0  0  0  0  0
    0.6720   20.6908    2.3905 H    0  0  0  0  0  0  0  0  0  0  0  0
   -0.3744   21.6976    1.3775 H    0  0  0  0  0  0  0  0  0  0  0  0
    0.5850   20.4042    0.6451 H    0  0  0  0  0  0  0  0  0  0  0  0
    2.7059   21.6326    1.2771 H    0  0  0  0  0  0  0  0  0  0  0  0
    1.7520   22.9165    1.9951 H    0  0  0  0  0  0  0  0  0  0  0  0
    0.7123   23.3598   -0.2853 H    0  0  0  0  0  0  0  0  0  0  0  0
    1.7053   22.0839   -0.9467 H    0  0  0  0  0  0  0  0  0  0  0  0
    3.6180   23.6994    0.3088 H    0  0  0  0  0  0  0  0  0  0  0  0
    4.2281   24.5566   -1.9118 H    0  0  0  0  0  0  0  0  0  0  0  0
    3.1962   26.0214   -0.4777 H    0  0  0  0  0  0  0  0  0  0  0  0
    1.5422   25.5897   -0.8793 H    0  0  0  0  0  0  0  0  0  0  0  0
    3.6110   21.5630   -1.8807 H    0  0  0  0  0  0  0  0  0  0  0  0
    4.6457   22.3760   -3.0336 H    0  0  0  0  0  0  0  0  0  0  0  0
    3.0316   23.8663   -3.9578 H    0  0  0  0  0  0  0  0  0  0  0  0
    1.9696   24.8587   -2.9543 H    0  0  0  0  0  0  0  0  0  0  0  0
    1.7537   23.1032   -3.0074 H    0  0  0  0  0  0  0  0  0  0  0  0
    6.0481   21.3455   -1.3031 H    0  0  0  0  0  0  0  0  0  0  0  0
    6.1815   23.1032   -1.1490 H    0  0  0  0  0  0  0  0  0  0  0  0
    5.1915   22.1831   -0.0076 H    0  0  0  0  0  0  0  0  0  0  0  0
    1.6978   26.7431    1.3348 H    0  0  0  0  0  0  0  0  0  0  0  0
    1.0528   25.1126    1.5385 H    0  0  0  0  0  0  0  0  0  0  0  0
    2.7400   25.4529    1.9531 H    0  0  0  0  0  0  0  0  0  0  0  0
  1  2  1  0
  2  3  1  0
  3  4  1  0
  4  5  1  0
  4  6  1  0
  5  7  1  0
  5  8  1  0
  6 10  1  0
  7  9  1  0
  1 11  1  0
  1 12  1  0
  1 13  1  0
  2 14  1  0
  2 15  1  0
  3 16  1  0
  3 17  1  0
  4 18  1  0
  5 19  1  0
  6 20  1  0
  6 21  1  0
  7 22  1  0
  7 23  1  0
  8 24  1  0
  8 25  1  0
  8 26  1  0
  9 27  1  0
  9 28  1  0
  9 29  1  0
 10 30  1  0
 10 31  1  0
 10 32  1  0
M  END
