
 OpenBabel09122101023D

 22 22  0  0  0  0  0  0  0  0999 V2000
   -0.9494    1.1614   -0.2318 C   0  0  0  0  0  0  0  0  0  0  0  0
    0.4452    1.0700   -0.2816 C   0  0  0  0  0  0  0  0  0  0  0  0
   -1.7263    0.0017   -0.1745 C   0  0  0  0  0  0  0  0  0  0  0  0
   -1.1101   -1.2521   -0.1656 C   0  0  0  0  0  0  0  0  0  0  0  0
    0.2840   -1.3487   -0.2156 C   0  0  0  0  0  0  0  0  0  0  0  0
    1.0752   -0.1873   -0.2770 C   0  0  0  0  0  0  0  0  0  0  0  0
   -1.4279    2.1323   -0.2371 H   0  0  0  0  0  0  0  0  0  0  0  0
   -2.8055    0.0747   -0.1355 H   0  0  0  0  0  0  0  0  0  0  0  0
   -1.7129   -2.1498   -0.1188 H   0  0  0  0  0  0  0  0  0  0  0  0
    0.7444   -2.3284   -0.2034 H   0  0  0  0  0  0  0  0  0  0  0  0
    1.0306    1.9800   -0.3253 H   0  0  0  0  0  0  0  0  0  0  0  0
    2.5805   -0.2867   -0.3269 C   0  0  0  0  0  0  0  0  0  0  0  0
    3.0566   -1.0083   -1.5952 C   0  0  0  0  0  0  0  0  0  0  0  0
    2.9344   -0.8293    0.5766 H   0  0  0  0  0  0  0  0  0  0  0  0
    3.0309    0.7305   -0.3137 H   0  0  0  0  0  0  0  0  0  0  0  0
    4.5841   -1.0935   -1.6390 C   0  0  0  0  0  0  0  0  0  0  0  0
    2.6978   -0.4524   -2.4893 H   0  0  0  0  0  0  0  0  0  0  0  0
    2.6429   -2.0392   -1.6272 H   0  0  0  0  0  0  0  0  0  0  0  0
    5.0005   -1.7717   -2.7926 O   0  0  0  0  0  0  0  0  0  0  0  0
    4.9538   -1.6524   -0.7529 H   0  0  0  0  0  0  0  0  0  0  0  0
    5.0414   -0.0779   -1.6038 H   0  0  0  0  0  0  0  0  0  0  0  0
    4.9317   -1.1255   -3.5432 H   0  0  0  0  0  0  0  0  0  0  0  0
  1  2  1  0  0  0  0
  1  3  2  0  0  0  0
  1  7  1  0  0  0  0
  2 11  1  0  0  0  0
  3  4  1  0  0  0  0
  3  8  1  0  0  0  0
  4  5  2  0  0  0  0
  4  9  1  0  0  0  0
  5  6  1  0  0  0  0
  5 10  1  0  0  0  0
  6  2  2  0  0  0  0
  6 12  1  0  0  0  0
 12 13  1  0  0  0  0
 12 14  1  0  0  0  0
 12 15  1  0  0  0  0
 13 16  1  0  0  0  0
 13 17  1  0  0  0  0
 13 18  1  0  0  0  0
 16 19  1  0  0  0  0
 16 20  1  0  0  0  0
 16 21  1  0  0  0  0
 19 22  1  0  0  0  0
M  END
