
 OpenBabel05302314493D

 33 32  0  0  0  0  0  0  0  0999 V2000
   -3.9220   -0.7839   -0.0098 S   0  0  0  0  0  0  0  0  0  0  0  0
    1.3326   -0.4289    0.0015 C   0  0  0  0  0  0  0  0  0  0  0  0
    2.5724    0.4733    0.0104 C   0  0  0  0  0  0  0  0  0  0  0  0
    0.0455    0.4045    0.0057 C   0  0  0  0  0  0  0  0  0  0  0  0
    3.8594   -0.3601    0.0062 C   0  0  0  0  0  0  0  0  0  0  0  0
   -1.1941   -0.4980   -0.0032 C   0  0  0  0  0  0  0  0  0  0  0  0
    5.0985    0.5425    0.0152 C   0  0  0  0  0  0  0  0  0  0  0  0
   -2.4784    0.3311    0.0011 C   0  0  0  0  0  0  0  0  0  0  0  0
    6.3817   -0.2833    0.0111 C   0  0  0  0  0  0  0  0  0  0  0  0
   -5.1482    0.5662    0.0002 C   0  0  0  0  0  0  0  0  0  0  0  0
   -6.5522   -0.0198   -0.0069 C   0  0  0  0  0  0  0  0  0  0  0  0
    1.3487   -1.0835    0.9009 H   0  0  0  0  0  0  0  0  0  0  0  0
    1.3517   -1.0696   -0.9078 H   0  0  0  0  0  0  0  0  0  0  0  0
    2.5533    1.1140    0.9197 H   0  0  0  0  0  0  0  0  0  0  0  0
    2.5563    1.1278   -0.8890 H   0  0  0  0  0  0  0  0  0  0  0  0
    0.0264    1.0452    0.9150 H   0  0  0  0  0  0  0  0  0  0  0  0
    0.0293    1.0591   -0.8937 H   0  0  0  0  0  0  0  0  0  0  0  0
    3.8758   -1.0146    0.9057 H   0  0  0  0  0  0  0  0  0  0  0  0
    3.8789   -1.0008   -0.9031 H   0  0  0  0  0  0  0  0  0  0  0  0
   -1.1801   -1.1524    0.8962 H   0  0  0  0  0  0  0  0  0  0  0  0
   -1.1772   -1.1385   -0.9125 H   0  0  0  0  0  0  0  0  0  0  0  0
    5.0906    1.1972   -0.8834 H   0  0  0  0  0  0  0  0  0  0  0  0
    5.0876    1.1834    0.9238 H   0  0  0  0  0  0  0  0  0  0  0  0
   -2.4982    0.9690   -0.9090 H   0  0  0  0  0  0  0  0  0  0  0  0
   -2.5011    0.9548    0.9209 H   0  0  0  0  0  0  0  0  0  0  0  0
    6.4293   -0.9183   -0.8992 H   0  0  0  0  0  0  0  0  0  0  0  0
    6.4262   -0.9322    0.9117 H   0  0  0  0  0  0  0  0  0  0  0  0
    7.2609    0.3949    0.0178 H   0  0  0  0  0  0  0  0  0  0  0  0
   -5.0251    1.1932   -0.9087 H   0  0  0  0  0  0  0  0  0  0  0  0
   -5.0276    1.1775    0.9201 H   0  0  0  0  0  0  0  0  0  0  0  0
   -6.7056   -0.6366   -0.9179 H   0  0  0  0  0  0  0  0  0  0  0  0
   -6.7081   -0.6522    0.8929 H   0  0  0  0  0  0  0  0  0  0  0  0
   -7.3000    0.8011   -0.0008 H   0  0  0  0  0  0  0  0  0  0  0  0
  1  8  1  0  0  0  0
  1 10  1  0  0  0  0
  2  3  1  0  0  0  0
  2  4  1  0  0  0  0
  2 12  1  0  0  0  0
  2 13  1  0  0  0  0
  3  5  1  0  0  0  0
  3 14  1  0  0  0  0
  3 15  1  0  0  0  0
  4  6  1  0  0  0  0
  4 16  1  0  0  0  0
  4 17  1  0  0  0  0
  5  7  1  0  0  0  0
  5 18  1  0  0  0  0
  5 19  1  0  0  0  0
  6  8  1  0  0  0  0
  6 20  1  0  0  0  0
  6 21  1  0  0  0  0
  7  9  1  0  0  0  0
  7 22  1  0  0  0  0
  7 23  1  0  0  0  0
  8 24  1  0  0  0  0
  8 25  1  0  0  0  0
  9 26  1  0  0  0  0
  9 27  1  0  0  0  0
  9 28  1  0  0  0  0
 10 11  1  0  0  0  0
 10 29  1  0  0  0  0
 10 30  1  0  0  0  0
 11 31  1  0  0  0  0
 11 32  1  0  0  0  0
 11 33  1  0  0  0  0
M  END
