
 OpenBabel10212217173D

 13 13  0  0  0  0  0  0  0  0999 V2000
   -3.2724    0.0021   -0.0252 Br  0  0  0  0  0  0  0  0  0  0  0  0
    2.7890   -0.0477    0.0394 O   0  0  0  0  0  0  0  0  0  0  0  0
    1.4410   -0.0245    0.0250 C   0  0  0  0  0  0  0  0  0  0  0  0
    0.7301   -1.2308    0.0180 C   0  0  0  0  0  0  0  0  0  0  0  0
    0.7426    1.1933    0.0171 C   0  0  0  0  0  0  0  0  0  0  0  0
   -0.6685   -1.2228    0.0031 C   0  0  0  0  0  0  0  0  0  0  0  0
   -0.6560    1.1999    0.0022 C   0  0  0  0  0  0  0  0  0  0  0  0
   -1.3627   -0.0078   -0.0048 C   0  0  0  0  0  0  0  0  0  0  0  0
    1.2611   -2.1744    0.0240 H   0  0  0  0  0  0  0  0  0  0  0  0
    1.2810    2.1326    0.0224 H   0  0  0  0  0  0  0  0  0  0  0  0
   -1.2109   -2.1595   -0.0023 H   0  0  0  0  0  0  0  0  0  0  0  0
   -1.1886    2.1421   -0.0039 H   0  0  0  0  0  0  0  0  0  0  0  0
    3.3174    0.7632    0.0447 H   0  0  0  0  0  0  0  0  0  0  0  0
  1  8  1  0  0  0  0
  2  3  1  0  0  0  0
  2 13  1  0  0  0  0
  3  4  2  0  0  0  0
  3  5  1  0  0  0  0
  4  6  1  0  0  0  0
  4  9  1  0  0  0  0
  5  7  2  0  0  0  0
  5 10  1  0  0  0  0
  6  8  2  0  0  0  0
  6 11  1  0  0  0  0
  7  8  1  0  0  0  0
  7 12  1  0  0  0  0
M  END
