
 OpenBabel11072209433D

 16 16  0  0  0  0  0  0  0  0999 V2000
   -2.8342    0.4512    0.2753 Cl  0  0  0  0  0  0  0  0  0  0  0  0
   -1.3379   -2.2525    0.1544 N   0  0  0  0  0  0  0  0  0  0  0  0
    3.1008   -0.2361   -0.0949 N   0  0  0  0  0  0  0  0  0  0  0  0
   -0.5277   -1.0873    0.1176 C   0  0  0  0  0  0  0  0  0  0  0  0
    1.6943   -0.0900   -0.0074 C   0  0  0  0  0  0  0  0  0  0  0  0
    0.8676   -1.2218    0.0309 C   0  0  0  0  0  0  0  0  0  0  0  0
   -1.0954    0.2036    0.1663 C   0  0  0  0  0  0  0  0  0  0  0  0
    1.1200    1.1864    0.0416 C   0  0  0  0  0  0  0  0  0  0  0  0
   -0.2663    1.3306    0.1279 C   0  0  0  0  0  0  0  0  0  0  0  0
    1.3110   -2.2096   -0.0070 H   0  0  0  0  0  0  0  0  0  0  0  0
    1.7460    2.0696    0.0130 H   0  0  0  0  0  0  0  0  0  0  0  0
   -0.6967    2.3234    0.1650 H   0  0  0  0  0  0  0  0  0  0  0  0
   -0.9088   -3.1888    0.1180 H   0  0  0  0  0  0  0  0  0  0  0  0
   -2.3637   -2.1961    0.2178 H   0  0  0  0  0  0  0  0  0  0  0  0
    3.7151    0.5909   -0.1234 H   0  0  0  0  0  0  0  0  0  0  0  0
    3.5317   -1.1715   -0.1314 H   0  0  0  0  0  0  0  0  0  0  0  0
  1  7  1  0  0  0  0
  2  4  1  0  0  0  0
  2 13  1  0  0  0  0
  2 14  1  0  0  0  0
  3  5  1  0  0  0  0
  3 15  1  0  0  0  0
  3 16  1  0  0  0  0
  4  6  1  0  0  0  0
  4  7  2  0  0  0  0
  5  6  2  0  0  0  0
  5  8  1  0  0  0  0
  6 10  1  0  0  0  0
  7  9  1  0  0  0  0
  8  9  2  0  0  0  0
  8 11  1  0  0  0  0
  9 12  1  0  0  0  0
M  END
