
 OpenBabel10302115333D

 15 15  0  0  0  0  0  0  0  0999 V2000
   -2.0705   -0.7430   -0.2326 Cl  0  0  0  0  0  0  0  0  0  0  0  0
    2.4150    0.0742   -0.0989 C   0  0  0  0  0  0  0  0  0  0  0  0
    1.9375   -1.2418   -0.1991 C   0  0  0  0  0  0  0  0  0  0  0  0
    1.4992    1.1377   -0.0402 C   0  0  0  0  0  0  0  0  0  0  0  0
    3.8927    0.3282   -0.0559 C   0  0  0  0  0  0  0  0  0  0  0  0
    0.5621   -1.4913   -0.2400 C   0  0  0  0  0  0  0  0  0  0  0  0
    0.1242    0.8853   -0.0813 C   0  0  0  0  0  0  0  0  0  0  0  0
   -0.3456   -0.4286   -0.1812 C   0  0  0  0  0  0  0  0  0  0  0  0
    2.6305   -2.0730   -0.2454 H   0  0  0  0  0  0  0  0  0  0  0  0
    1.8465    2.1605    0.0373 H   0  0  0  0  0  0  0  0  0  0  0  0
    4.3346   -0.1879    0.8223 H   0  0  0  0  0  0  0  0  0  0  0  0
    4.1185    1.4129    0.0241 H   0  0  0  0  0  0  0  0  0  0  0  0
    4.3654   -0.0612   -0.9820 H   0  0  0  0  0  0  0  0  0  0  0  0
    0.2037   -2.5099   -0.3174 H   0  0  0  0  0  0  0  0  0  0  0  0
   -0.5744    1.7111   -0.0355 H   0  0  0  0  0  0  0  0  0  0  0  0
  1  8  1  0  0  0  0
  2  3  2  0  0  0  0
  2  4  1  0  0  0  0
  2  5  1  0  0  0  0
  3  6  1  0  0  0  0
  3  9  1  0  0  0  0
  4  7  2  0  0  0  0
  4 10  1  0  0  0  0
  5 11  1  0  0  0  0
  5 12  1  0  0  0  0
  5 13  1  0  0  0  0
  6  8  2  0  0  0  0
  6 14  1  0  0  0  0
  7  8  1  0  0  0  0
  7 15  1  0  0  0  0
M  END
