
 OpenBabel10222214483D

 19 19  0  0  0  0  0  0  0  0999 V2000
   -1.4014   -1.4371    3.2879 O   0  0  0  0  0  0  0  0  0  0  0  0
   -1.1506   -1.5793   -3.9967 O   0  0  0  0  0  0  0  0  0  0  0  0
    0.6542   -1.1273   -2.7687 O   0  0  0  0  0  0  0  0  0  0  0  0
   -1.3179   -0.3271   -0.7219 C   0  0  0  0  0  0  0  0  0  0  0  0
   -1.2895    0.0790   -2.1733 C   0  0  0  0  0  0  0  0  0  0  0  0
   -1.9226   -1.5359   -0.3365 C   0  0  0  0  0  0  0  0  0  0  0  0
   -0.7477    0.4986    0.2616 C   0  0  0  0  0  0  0  0  0  0  0  0
   -1.9527   -1.9134    1.0093 C   0  0  0  0  0  0  0  0  0  0  0  0
   -0.7789    0.1190    1.6071 C   0  0  0  0  0  0  0  0  0  0  0  0
   -1.3799   -1.0860    1.9862 C   0  0  0  0  0  0  0  0  0  0  0  0
   -0.5282   -0.9185   -2.9978 C   0  0  0  0  0  0  0  0  0  0  0  0
   -2.3345    0.1566   -2.5435 H   0  0  0  0  0  0  0  0  0  0  0  0
   -0.8083    1.0732   -2.2985 H   0  0  0  0  0  0  0  0  0  0  0  0
   -2.3703   -2.1847   -1.0792 H   0  0  0  0  0  0  0  0  0  0  0  0
   -0.2779    1.4355   -0.0107 H   0  0  0  0  0  0  0  0  0  0  0  0
   -2.4215   -2.8478    1.2910 H   0  0  0  0  0  0  0  0  0  0  0  0
   -0.3353    0.7631    2.3560 H   0  0  0  0  0  0  0  0  0  0  0  0
   -1.8071   -2.2616    3.5919 H   0  0  0  0  0  0  0  0  0  0  0  0
   -0.6817   -2.2257   -4.5433 H   0  0  0  0  0  0  0  0  0  0  0  0
  1 10  1  0  0  0  0
  1 18  1  0  0  0  0
  2 11  1  0  0  0  0
  2 19  1  0  0  0  0
  3 11  2  0  0  0  0
  4  5  1  0  0  0  0
  4  6  2  0  0  0  0
  4  7  1  0  0  0  0
  5 11  1  0  0  0  0
  5 12  1  0  0  0  0
  5 13  1  0  0  0  0
  6  8  1  0  0  0  0
  6 14  1  0  0  0  0
  7  9  2  0  0  0  0
  7 15  1  0  0  0  0
  8 10  2  0  0  0  0
  8 16  1  0  0  0  0
  9 10  1  0  0  0  0
  9 17  1  0  0  0  0
M  END
