  4-METHYL-3-ETHYLHEPTANE.mol	52896-91-0
  NIST    08031214513D 1   1.00000  -394.32686
Copyright by the U.S. Sec. Commerce on behalf of U.S.A. All rights reserved.
 32 31  0  0  0  0  0  0  0  0999 V2000
    0.2190   29.6760    0.7389 C    0  0  0  0  0  0  0  0  0  0  0  0
    1.4299   30.5637    0.4277 C    0  0  0  0  0  0  0  0  0  0  0  0
    1.0241   32.0048    0.0872 C    0  0  0  0  0  0  0  0  0  0  0  0
    2.1605   33.0331   -0.1105 C    0  0  0  0  0  0  0  0  0  0  0  0
    3.1324   32.7640   -1.3048 C    0  0  0  0  0  0  0  0  0  0  0  0
    1.5561   34.4469   -0.2029 C    0  0  0  0  0  0  0  0  0  0  0  0
    4.2187   31.6941   -0.9854 C    0  0  0  0  0  0  0  0  0  0  0  0
    2.3873   32.4671   -2.6249 C    0  0  0  0  0  0  0  0  0  0  0  0
    5.6511   32.1501   -1.2959 C    0  0  0  0  0  0  0  0  0  0  0  0
    3.2713   32.4948   -3.8780 C    0  0  0  0  0  0  0  0  0  0  0  0
    0.5240   28.6511    0.9797 H    0  0  0  0  0  0  0  0  0  0  0  0
   -0.3483   30.0649    1.5937 H    0  0  0  0  0  0  0  0  0  0  0  0
   -0.4667   29.6271   -0.1162 H    0  0  0  0  0  0  0  0  0  0  0  0
    1.9967   30.1202   -0.3998 H    0  0  0  0  0  0  0  0  0  0  0  0
    2.1078   30.5696    1.2930 H    0  0  0  0  0  0  0  0  0  0  0  0
    0.3860   32.3754    0.9032 H    0  0  0  0  0  0  0  0  0  0  0  0
    0.3802   31.9958   -0.8038 H    0  0  0  0  0  0  0  0  0  0  0  0
    2.7792   33.0141    0.8005 H    0  0  0  0  0  0  0  0  0  0  0  0
    3.6675   33.7151   -1.4548 H    0  0  0  0  0  0  0  0  0  0  0  0
    2.3398   35.2106   -0.2721 H    0  0  0  0  0  0  0  0  0  0  0  0
    0.9476   34.6722    0.6810 H    0  0  0  0  0  0  0  0  0  0  0  0
    0.9072   34.5568   -1.0806 H    0  0  0  0  0  0  0  0  0  0  0  0
    4.1706   31.4244    0.0765 H    0  0  0  0  0  0  0  0  0  0  0  0
    4.0090   30.7668   -1.5361 H    0  0  0  0  0  0  0  0  0  0  0  0
    1.9017   31.4842   -2.5561 H    0  0  0  0  0  0  0  0  0  0  0  0
    1.5776   33.1972   -2.7562 H    0  0  0  0  0  0  0  0  0  0  0  0
    6.3782   31.3641   -1.0592 H    0  0  0  0  0  0  0  0  0  0  0  0
    5.7754   32.4118   -2.3525 H    0  0  0  0  0  0  0  0  0  0  0  0
    5.9161   33.0360   -0.7054 H    0  0  0  0  0  0  0  0  0  0  0  0
    2.6737   32.3225   -4.7808 H    0  0  0  0  0  0  0  0  0  0  0  0
    3.7718   33.4646   -3.9908 H    0  0  0  0  0  0  0  0  0  0  0  0
    4.0474   31.7219   -3.8477 H    0  0  0  0  0  0  0  0  0  0  0  0
  1  2  1  0
  2  3  1  0
  3  4  1  0
  4  5  1  0
  4  6  1  0
  5  7  1  0
  5  8  1  0
  7  9  1  0
  8 10  1  0
  1 11  1  0
  1 12  1  0
  1 13  1  0
  2 14  1  0
  2 15  1  0
  3 16  1  0
  3 17  1  0
  4 18  1  0
  5 19  1  0
  6 20  1  0
  6 21  1  0
  6 22  1  0
  7 23  1  0
  7 24  1  0
  8 25  1  0
  8 26  1  0
  9 27  1  0
  9 28  1  0
  9 29  1  0
 10 30  1  0
 10 31  1  0
 10 32  1  0
M  END
