
 OpenBabel05302317533D

 27 29  0  0  0  0  0  0  0  0999 V2000
    0.6634   -0.2148   -0.0000 C   0  0  0  0  0  0  0  0  0  0  0  0
   -0.7917   -0.2903   -0.0000 C   0  0  0  0  0  0  0  0  0  0  0  0
    1.2488    1.0993   -0.0000 C   0  0  0  0  0  0  0  0  0  0  0  0
   -1.5490    0.9277   -0.0000 C   0  0  0  0  0  0  0  0  0  0  0  0
    1.5940   -1.3283   -0.0000 C   0  0  0  0  0  0  0  0  0  0  0  0
    0.4593    2.2503   -0.0000 C   0  0  0  0  0  0  0  0  0  0  0  0
   -0.9150    2.1663   -0.0000 C   0  0  0  0  0  0  0  0  0  0  0  0
    2.6377    1.2842   -0.0001 C   0  0  0  0  0  0  0  0  0  0  0  0
   -1.5567   -1.4914    0.0000 C   0  0  0  0  0  0  0  0  0  0  0  0
    2.9827   -1.0815   -0.0000 C   0  0  0  0  0  0  0  0  0  0  0  0
   -2.9546    0.9151   -0.0000 C   0  0  0  0  0  0  0  0  0  0  0  0
    3.4940    0.2028   -0.0000 C   0  0  0  0  0  0  0  0  0  0  0  0
    1.2304   -2.7915   -0.0000 C   0  0  0  0  0  0  0  0  0  0  0  0
   -2.9535   -1.4807    0.0000 C   0  0  0  0  0  0  0  0  0  0  0  0
   -3.6506   -0.2837   -0.0000 C   0  0  0  0  0  0  0  0  0  0  0  0
    0.9122    3.2358   -0.0001 H   0  0  0  0  0  0  0  0  0  0  0  0
   -1.4898    3.0859   -0.0000 H   0  0  0  0  0  0  0  0  0  0  0  0
    3.0682    2.2796   -0.0001 H   0  0  0  0  0  0  0  0  0  0  0  0
   -1.1560   -2.4727    0.0000 H   0  0  0  0  0  0  0  0  0  0  0  0
    3.6962   -1.8971   -0.0000 H   0  0  0  0  0  0  0  0  0  0  0  0
   -3.5196    1.8405   -0.0000 H   0  0  0  0  0  0  0  0  0  0  0  0
    4.5653    0.3602   -0.0001 H   0  0  0  0  0  0  0  0  0  0  0  0
    2.1189   -3.4588   -0.0000 H   0  0  0  0  0  0  0  0  0  0  0  0
    0.6733   -3.0432    0.9262 H   0  0  0  0  0  0  0  0  0  0  0  0
    0.6733   -3.0433   -0.9261 H   0  0  0  0  0  0  0  0  0  0  0  0
   -3.5008   -2.4154    0.0000 H   0  0  0  0  0  0  0  0  0  0  0  0
   -4.7331   -0.2847   -0.0000 H   0  0  0  0  0  0  0  0  0  0  0  0
  1  2  1  0  0  0  0
  1  3  1  0  0  0  0
  1  5  2  0  0  0  0
  2  4  1  0  0  0  0
  2  9  2  0  0  0  0
  3  6  1  0  0  0  0
  3  8  2  0  0  0  0
  4  7  1  0  0  0  0
  4 11  2  0  0  0  0
  5 10  1  0  0  0  0
  5 13  1  0  0  0  0
  6  7  2  0  0  0  0
  6 16  1  0  0  0  0
  7 17  1  0  0  0  0
  8 12  1  0  0  0  0
  8 18  1  0  0  0  0
  9 14  1  0  0  0  0
  9 19  1  0  0  0  0
 10 12  2  0  0  0  0
 10 20  1  0  0  0  0
 11 15  1  0  0  0  0
 11 21  1  0  0  0  0
 12 22  1  0  0  0  0
 13 23  1  0  0  0  0
 13 24  1  0  0  0  0
 13 25  1  0  0  0  0
 14 15  2  0  0  0  0
 14 26  1  0  0  0  0
 15 27  1  0  0  0  0
M  END
