
 OpenBabel05252316333D

 21 22  0  0  1  0  0  0  0  0999 V2000
   -1.5131    0.9749   -0.1312 C   0  0  2  0  0  0  0  0  0  0  0  0
   -1.2358   -1.1306   -0.8287 C   0  0  1  0  0  0  0  0  0  0  0  0
   -1.1897    0.2663   -1.4537 C   0  0  0  0  0  0  0  0  0  0  0  0
   -0.3640    0.4726    0.7722 C   0  0  0  0  0  0  0  0  0  0  0  0
   -0.2258   -0.9397    0.2696 C   0  0  0  0  0  0  0  0  0  0  0  0
   -2.7656    0.2327    0.2437 C   0  0  0  0  0  0  0  0  0  0  0  0
   -2.5906   -1.0678   -0.1862 C   0  0  0  0  0  0  0  0  0  0  0  0
    0.6715   -1.8529    0.6713 C   0  0  0  0  0  0  0  0  0  0  0  0
    1.6694   -1.5672    1.7525 C   0  0  0  0  0  0  0  0  0  0  0  0
   -1.6309    2.0788   -0.1165 H   0  0  0  0  0  0  0  0  0  0  0  0
   -1.0749   -2.0313   -1.4587 H   0  0  0  0  0  0  0  0  0  0  0  0
   -0.1957    0.5401   -1.8783 H   0  0  0  0  0  0  0  0  0  0  0  0
   -1.9692    0.4202   -2.2371 H   0  0  0  0  0  0  0  0  0  0  0  0
   -0.6069    0.5497    1.8541 H   0  0  0  0  0  0  0  0  0  0  0  0
    0.5772    1.0230    0.5541 H   0  0  0  0  0  0  0  0  0  0  0  0
   -3.6716    0.6377    0.6738 H   0  0  0  0  0  0  0  0  0  0  0  0
   -3.3373   -1.8494   -0.1454 H   0  0  0  0  0  0  0  0  0  0  0  0
    0.6788   -2.8328    0.2029 H   0  0  0  0  0  0  0  0  0  0  0  0
    2.3058   -2.4610    1.9205 H   0  0  0  0  0  0  0  0  0  0  0  0
    1.1436   -1.3190    2.6984 H   0  0  0  0  0  0  0  0  0  0  0  0
    2.3186   -0.7166    1.4560 H   0  0  0  0  0  0  0  0  0  0  0  0
  1  3  1  0  0  0  0
  1  4  1  0  0  0  0
  1  6  1  0  0  0  0
  1 10  1  6  0  0  0
  2  3  1  0  0  0  0
  2  5  1  0  0  0  0
  2  7  1  0  0  0  0
  2 11  1  6  0  0  0
  3 12  1  0  0  0  0
  3 13  1  0  0  0  0
  4  5  1  0  0  0  0
  4 14  1  0  0  0  0
  4 15  1  0  0  0  0
  5  8  2  0  0  0  0
  6  7  2  0  0  0  0
  6 16  1  0  0  0  0
  7 17  1  0  0  0  0
  8  9  1  0  0  0  0
  8 18  1  0  0  0  0
  9 19  1  0  0  0  0
  9 20  1  0  0  0  0
  9 21  1  0  0  0  0
M  END
