
 OpenBabel05302317583D

 17 16  0  0  0  0  0  0  0  0999 V2000
   -2.4359    0.3041    1.5292 O   0  0  0  0  0  0  0  0  0  0  0  0
   -0.5475   -0.3028    0.2463 C   0  0  0  0  0  0  0  0  0  0  0  0
    0.2060    1.0213    0.4019 C   0  0  0  0  0  0  0  0  0  0  0  0
   -2.0275   -0.1074    0.4537 C   0  0  0  0  0  0  0  0  0  0  0  0
    1.6836    0.8058    0.2161 C   0  0  0  0  0  0  0  0  0  0  0  0
   -3.0175   -0.4150   -0.6310 C   0  0  0  0  0  0  0  0  0  0  0  0
    2.3754    1.4235   -0.7457 C   0  0  0  0  0  0  0  0  0  0  0  0
   -0.3508   -0.7106   -0.7692 H   0  0  0  0  0  0  0  0  0  0  0  0
   -0.1780   -1.0388    0.9934 H   0  0  0  0  0  0  0  0  0  0  0  0
    0.0390    1.4346    1.4199 H   0  0  0  0  0  0  0  0  0  0  0  0
   -0.1844    1.7520   -0.3415 H   0  0  0  0  0  0  0  0  0  0  0  0
    2.2031    0.1272    0.8867 H   0  0  0  0  0  0  0  0  0  0  0  0
   -3.5882    0.5033   -0.8828 H   0  0  0  0  0  0  0  0  0  0  0  0
   -3.7229   -1.1965   -0.2788 H   0  0  0  0  0  0  0  0  0  0  0  0
   -2.5149   -0.7810   -1.5504 H   0  0  0  0  0  0  0  0  0  0  0  0
    3.4405    1.2429   -0.8478 H   0  0  0  0  0  0  0  0  0  0  0  0
    1.8929    2.1092   -1.4355 H   0  0  0  0  0  0  0  0  0  0  0  0
  1  4  2  0  0  0  0
  2  3  1  0  0  0  0
  2  4  1  0  0  0  0
  2  8  1  0  0  0  0
  2  9  1  0  0  0  0
  3  5  1  0  0  0  0
  3 10  1  0  0  0  0
  3 11  1  0  0  0  0
  4  6  1  0  0  0  0
  5  7  2  0  0  0  0
  5 12  1  0  0  0  0
  6 13  1  0  0  0  0
  6 14  1  0  0  0  0
  6 15  1  0  0  0  0
  7 16  1  0  0  0  0
  7 17  1  0  0  0  0
M  END
