
 OpenBabel05252316353D

 14 14  0  0  0  0  0  0  0  0999 V2000
    1.0839    1.1028    1.3532 O   0  0  0  0  0  0  0  0  0  0  0  0
   -0.9526    2.2885    2.9081 O   0  0  0  0  0  0  0  0  0  0  0  0
    1.7515    0.2996    0.5554 C   0  0  0  0  0  0  0  0  0  0  0  0
    0.9366   -0.7322    0.1310 C   0  0  0  0  0  0  0  0  0  0  0  0
   -0.1407    0.6393    1.4707 C   0  0  0  0  0  0  0  0  0  0  0  0
   -0.2869   -0.5120    0.7232 C   0  0  0  0  0  0  0  0  0  0  0  0
    3.1819    0.4996    0.1809 C   0  0  0  0  0  0  0  0  0  0  0  0
   -1.1882    1.2674    2.2832 C   0  0  0  0  0  0  0  0  0  0  0  0
    1.2012   -1.5470   -0.5301 H   0  0  0  0  0  0  0  0  0  0  0  0
   -1.1772   -1.1187    0.6213 H   0  0  0  0  0  0  0  0  0  0  0  0
    3.5247   -0.3062   -0.5021 H   0  0  0  0  0  0  0  0  0  0  0  0
    3.2968    1.4786   -0.3290 H   0  0  0  0  0  0  0  0  0  0  0  0
    3.8086    0.4881    1.0966 H   0  0  0  0  0  0  0  0  0  0  0  0
   -2.1781    0.8255    2.3315 H   0  0  0  0  0  0  0  0  0  0  0  0
  1  3  1  0  0  0  0
  1  5  1  0  0  0  0
  2  8  2  0  0  0  0
  3  4  2  0  0  0  0
  3  7  1  0  0  0  0
  4  6  1  0  0  0  0
  4  9  1  0  0  0  0
  5  6  2  0  0  0  0
  5  8  1  0  0  0  0
  6 10  1  0  0  0  0
  7 11  1  0  0  0  0
  7 12  1  0  0  0  0
  7 13  1  0  0  0  0
  8 14  1  0  0  0  0
M  END
