
 OpenBabel05302315433D

 21 22  0  0  1  0  0  0  0  0999 V2000
   -0.9260    1.5159   -0.6138 C   0  0  2  0  0  0  0  0  0  0  0  0
   -1.3217   -0.6598   -0.3933 C   0  0  2  0  0  0  0  0  0  0  0  0
    0.4361    0.8848   -0.9906 C   0  0  2  0  0  0  0  0  0  0  0  0
   -1.4219    0.5835    0.4929 C   0  0  0  0  0  0  0  0  0  0  0  0
    0.1707   -0.6259   -0.7742 C   0  0  0  0  0  0  0  0  0  0  0  0
   -1.8977    1.1445   -1.6977 C   0  0  0  0  0  0  0  0  0  0  0  0
   -2.1308   -0.2056   -1.5696 C   0  0  0  0  0  0  0  0  0  0  0  0
    1.5570    1.3802   -0.1016 C   0  0  0  0  0  0  0  0  0  0  0  0
    2.6413    1.9802   -0.6012 C   0  0  0  0  0  0  0  0  0  0  0  0
   -0.8787    2.6122   -0.4397 H   0  0  0  0  0  0  0  0  0  0  0  0
   -1.6462   -1.6399    0.0158 H   0  0  0  0  0  0  0  0  0  0  0  0
    0.6622    1.1189   -2.0569 H   0  0  0  0  0  0  0  0  0  0  0  0
   -2.4662    0.8068    0.8165 H   0  0  0  0  0  0  0  0  0  0  0  0
   -0.7705    0.5516    1.3950 H   0  0  0  0  0  0  0  0  0  0  0  0
    0.7381   -1.0010    0.1084 H   0  0  0  0  0  0  0  0  0  0  0  0
    0.4259   -1.2577   -1.6522 H   0  0  0  0  0  0  0  0  0  0  0  0
   -2.3980    1.8065   -2.3916 H   0  0  0  0  0  0  0  0  0  0  0  0
   -2.8478   -0.7780   -2.1424 H   0  0  0  0  0  0  0  0  0  0  0  0
    1.4858    1.2484    0.9741 H   0  0  0  0  0  0  0  0  0  0  0  0
    3.4259    2.3233    0.0653 H   0  0  0  0  0  0  0  0  0  0  0  0
    2.7585    2.1350   -1.6693 H   0  0  0  0  0  0  0  0  0  0  0  0
  1  3  1  6  0  0  0
  1  4  1  0  0  0  0
  1  6  1  0  0  0  0
  1 10  1  0  0  0  0
  2  4  1  0  0  0  0
  2  5  1  0  0  0  0
  2  7  1  0  0  0  0
  2 11  1  1  0  0  0
  3  5  1  0  0  0  0
  3  8  1  0  0  0  0
  3 12  1  6  0  0  0
  4 13  1  0  0  0  0
  4 14  1  0  0  0  0
  5 15  1  0  0  0  0
  5 16  1  0  0  0  0
  6  7  2  0  0  0  0
  6 17  1  0  0  0  0
  7 18  1  0  0  0  0
  8  9  2  0  0  0  0
  8 19  1  0  0  0  0
  9 20  1  0  0  0  0
  9 21  1  0  0  0  0
M  END
