
 OpenBabel05252316393D

 14 13  0  0  1  0  0  0  0  0999 V2000
   -0.5775    0.3780   -0.6232 O   0  0  0  0  0  0  0  0  0  0  0  0
    0.5384   -2.9491   -0.2865 O   0  0  0  0  0  0  0  0  0  0  0  0
   -0.7892   -1.0071   -0.5215 C   0  0  1  0  0  0  0  0  0  0  0  0
    0.5294   -1.7290   -0.3600 C   0  0  0  0  0  0  0  0  0  0  0  0
   -1.7076   -1.2967    0.6678 C   0  0  0  0  0  0  0  0  0  0  0  0
    1.8321   -0.9844   -0.2957 C   0  0  0  0  0  0  0  0  0  0  0  0
   -1.2611   -1.3841   -1.4587 H   0  0  0  0  0  0  0  0  0  0  0  0
   -1.2430   -0.9372    1.6111 H   0  0  0  0  0  0  0  0  0  0  0  0
   -1.9030   -2.3871    0.7523 H   0  0  0  0  0  0  0  0  0  0  0  0
   -2.6801   -0.7787    0.5285 H   0  0  0  0  0  0  0  0  0  0  0  0
    2.6829   -1.6893   -0.1783 H   0  0  0  0  0  0  0  0  0  0  0  0
    1.8237   -0.2907    0.5710 H   0  0  0  0  0  0  0  0  0  0  0  0
    1.9787   -0.4039   -1.2305 H   0  0  0  0  0  0  0  0  0  0  0  0
   -1.3818    0.7616   -1.0614 H   0  0  0  0  0  0  0  0  0  0  0  0
  1  3  1  0  0  0  0
  1 14  1  0  0  0  0
  2  4  2  0  0  0  0
  3  4  1  0  0  0  0
  3  5  1  0  0  0  0
  3  7  1  6  0  0  0
  4  6  1  0  0  0  0
  5  8  1  0  0  0  0
  5  9  1  0  0  0  0
  5 10  1  0  0  0  0
  6 11  1  0  0  0  0
  6 12  1  0  0  0  0
  6 13  1  0  0  0  0
M  END
