
 OpenBabel05302319003D

 26 28  0  0  0  0  0  0  0  0999 V2000
    1.1026   -0.9180    0.5767 C   0  0  1  0  0  0  0  0  0  0  0  0
   -1.1447    0.1405    1.0301 C   0  0  2  0  0  0  0  0  0  0  0  0
   -0.5540   -0.6170   -1.3052 C   0  0  1  0  0  0  0  0  0  0  0  0
    0.5960    1.3946   -0.3016 C   0  0  2  0  0  0  0  0  0  0  0  0
   -0.0420   -0.7770    1.6056 C   0  0  0  0  0  0  0  0  0  0  0  0
    0.5482   -1.5339   -0.7280 C   0  0  0  0  0  0  0  0  0  0  0  0
    1.6974    0.4762    0.2748 C   0  0  0  0  0  0  0  0  0  0  0  0
   -1.6974   -0.4762   -0.2749 C   0  0  0  0  0  0  0  0  0  0  0  0
   -0.5483    1.5339    0.7280 C   0  0  0  0  0  0  0  0  0  0  0  0
    0.0420    0.7770   -1.6056 C   0  0  0  0  0  0  0  0  0  0  0  0
    1.8953   -1.5780    0.9912 H   0  0  0  0  0  0  0  0  0  0  0  0
   -1.9676    0.2414    1.7707 H   0  0  0  0  0  0  0  0  0  0  0  0
   -0.9522   -1.0606   -2.2435 H   0  0  0  0  0  0  0  0  0  0  0  0
    1.0245    2.3972   -0.5185 H   0  0  0  0  0  0  0  0  0  0  0  0
   -0.4663   -1.7781    1.8398 H   0  0  0  0  0  0  0  0  0  0  0  0
    0.3514   -0.3478    2.5533 H   0  0  0  0  0  0  0  0  0  0  0  0
    0.1312   -2.5443   -0.5224 H   0  0  0  0  0  0  0  0  0  0  0  0
    1.3688   -1.6526   -1.4693 H   0  0  0  0  0  0  0  0  0  0  0  0
    2.5321    0.3822   -0.4542 H   0  0  0  0  0  0  0  0  0  0  0  0
    2.1121    0.9208    1.2062 H   0  0  0  0  0  0  0  0  0  0  0  0
   -2.5022    0.1706   -0.6882 H   0  0  0  0  0  0  0  0  0  0  0  0
   -2.1420   -1.4737   -0.0638 H   0  0  0  0  0  0  0  0  0  0  0  0
   -0.1611    1.9915    1.6649 H   0  0  0  0  0  0  0  0  0  0  0  0
   -1.3390    2.2055    0.3269 H   0  0  0  0  0  0  0  0  0  0  0  0
    0.8564    0.6867   -2.3578 H   0  0  0  0  0  0  0  0  0  0  0  0
   -0.7415    1.4392   -2.0353 H   0  0  0  0  0  0  0  0  0  0  0  0
  1  5  1  0  0  0  0
  1  6  1  0  0  0  0
  1  7  1  0  0  0  0
  1 11  1  1  0  0  0
  2  5  1  0  0  0  0
  2  8  1  0  0  0  0
  2  9  1  0  0  0  0
  2 12  1  1  0  0  0
  3  6  1  0  0  0  0
  3  8  1  0  0  0  0
  3 10  1  0  0  0  0
  3 13  1  6  0  0  0
  4  7  1  0  0  0  0
  4  9  1  0  0  0  0
  4 10  1  0  0  0  0
  4 14  1  6  0  0  0
  5 15  1  0  0  0  0
  5 16  1  0  0  0  0
  6 17  1  0  0  0  0
  6 18  1  0  0  0  0
  7 19  1  0  0  0  0
  7 20  1  0  0  0  0
  8 21  1  0  0  0  0
  8 22  1  0  0  0  0
  9 23  1  0  0  0  0
  9 24  1  0  0  0  0
 10 25  1  0  0  0  0
 10 26  1  0  0  0  0
M  END
