
 OpenBabel10302118233D

 20 20  0  0  0  0  0  0  0  0999 V2000
   -0.1179   28.8568   -0.0616 C   0  0  2  0  0  0  0  0  0  0  0  0
    0.8808   30.0267   -0.1604 C   0  0  0  0  0  0  0  0  0  0  0  0
    0.6714   27.5450    0.1016 C   0  0  1  0  0  0  0  0  0  0  0  0
   -0.9031   28.7988   -1.2250 O   0  0  0  0  0  0  0  0  0  0  0  0
    1.7598   29.8483   -1.2595 O   0  0  0  0  0  0  0  0  0  0  0  0
    2.5784   28.7045   -1.0536 C   0  0  1  0  0  0  0  0  0  0  0  0
    1.7166   27.4248   -1.0313 C   0  0  2  0  0  0  0  0  0  0  0  0
    3.5059   28.6076   -2.1001 O   0  0  0  0  0  0  0  0  0  0  0  0
    1.0821   27.2754   -2.2761 O   0  0  0  0  0  0  0  0  0  0  0  0
    1.3199   27.5572    1.3491 O   0  0  0  0  0  0  0  0  0  0  0  0
   -0.7854   28.9816    0.8229 H   0  0  0  0  0  0  0  0  0  0  0  0
    0.3170   30.9721   -0.3066 H   0  0  0  0  0  0  0  0  0  0  0  0
    1.4550   30.1522    0.7858 H   0  0  0  0  0  0  0  0  0  0  0  0
   -0.0420   26.6881    0.0781 H   0  0  0  0  0  0  0  0  0  0  0  0
   -1.5761   29.5253   -1.1541 H   0  0  0  0  0  0  0  0  0  0  0  0
    3.1454   28.7887   -0.0945 H   0  0  0  0  0  0  0  0  0  0  0  0
    2.3792   26.5456   -0.8533 H   0  0  0  0  0  0  0  0  0  0  0  0
    4.1087   29.3918   -2.0153 H   0  0  0  0  0  0  0  0  0  0  0  0
    0.7424   26.3432   -2.3140 H   0  0  0  0  0  0  0  0  0  0  0  0
    1.5951   26.6224    1.5395 H   0  0  0  0  0  0  0  0  0  0  0  0
  1  2  1  0  0  0  0
  1  3  1  1  0  0  0
  1  4  1  0  0  0  0
  1 11  1  0  0  0  0
  2  5  1  0  0  0  0
  2 12  1  0  0  0  0
  2 13  1  0  0  0  0
  3  7  1  6  0  0  0
  3 10  1  0  0  0  0
  3 14  1  0  0  0  0
  4 15  1  0  0  0  0
  5  6  1  0  0  0  0
  6  7  1  1  0  0  0
  6  8  1  0  0  0  0
  6 16  1  0  0  0  0
  7  9  1  0  0  0  0
  7 17  1  1  0  0  0
  8 18  1  0  0  0  0
  9 19  1  0  0  0  0
 10 20  1  0  0  0  0
M  END
