
 OpenBabel10222414193D

 24 24  0  0  0  0  0  0  0  0999 V2000
   -2.1731    2.4156   -1.9811 C   0  0  2  0  0  0  0  0  0  0  0  0
   -2.4249    1.0274   -1.9770 O   0  0  0  0  0  0  0  0  0  0  0  0
   -1.3041    2.8316   -3.1819 C   0  0  0  0  0  0  0  0  0  0  0  0
   -1.4818    2.8695   -0.6868 C   0  0  2  0  0  0  0  0  0  0  0  0
   -3.1579    2.9234   -2.0697 H   0  0  0  0  0  0  0  0  0  0  0  0
    0.0083    2.2859   -3.1196 O   0  0  0  0  0  0  0  0  0  0  0  0
   -1.2746    3.9303   -3.3020 H   0  0  0  0  0  0  0  0  0  0  0  0
   -1.7931    2.4576   -4.1061 H   0  0  0  0  0  0  0  0  0  0  0  0
   -0.0532    2.2957   -0.6474 C   0  0  2  0  0  0  0  0  0  0  0  0
   -2.2276    2.4991    0.4470 O   0  0  0  0  0  0  0  0  0  0  0  0
   -1.4264    3.9758   -0.6878 H   0  0  0  0  0  0  0  0  0  0  0  0
   -0.1307    1.1828   -0.6114 H   0  0  0  0  0  0  0  0  0  0  0  0
    0.6323    2.7538    0.4911 O   0  0  0  0  0  0  0  0  0  0  0  0
    0.7519    2.6382   -1.9479 C   0  0  1  0  0  0  0  0  0  0  0  0
    1.8943    1.8120   -1.9608 O   0  0  0  0  0  0  0  0  0  0  0  0
    1.2724    4.1091   -2.0277 C   0  0  0  0  0  0  0  0  0  0  0  0
   -1.6007    0.5423   -2.2397 H   0  0  0  0  0  0  0  0  0  0  0  0
   -2.2146    1.5088    0.5144 H   0  0  0  0  0  0  0  0  0  0  0  0
    0.3668    2.1681    1.2475 H   0  0  0  0  0  0  0  0  0  0  0  0
    0.2542    5.0664   -1.9790 O   0  0  0  0  0  0  0  0  0  0  0  0
    1.8440    4.2244   -2.9762 H   0  0  0  0  0  0  0  0  0  0  0  0
    1.9627    4.2940   -1.1741 H   0  0  0  0  0  0  0  0  0  0  0  0
    0.6973    5.9498   -2.0705 H   0  0  0  0  0  0  0  0  0  0  0  0
    2.4391    2.0010   -1.1517 H   0  0  0  0  0  0  0  0  0  0  0  0
  1  2  1  0  0  0  0
  1  3  1  0  0  0  0
  1  4  1  1  0  0  0
  1  5  1  0  0  0  0
  2 17  1  0  0  0  0
  3  6  1  0  0  0  0
  3  7  1  0  0  0  0
  3  8  1  0  0  0  0
  4  9  1  1  0  0  0
  4 10  1  0  0  0  0
  4 11  1  0  0  0  0
  9 12  1  0  0  0  0
  9 13  1  0  0  0  0
  9 14  1  6  0  0  0
 10 18  1  0  0  0  0
 13 19  1  0  0  0  0
 14  6  1  0  0  0  0
 14 15  1  1  0  0  0
 14 16  1  0  0  0  0
 15 24  1  0  0  0  0
 16 20  1  0  0  0  0
 16 21  1  0  0  0  0
 16 22  1  0  0  0  0
 20 23  1  0  0  0  0
M  END
