
 OpenBabel10222414203D

 24 24  0  0  0  0  0  0  0  0999 V2000
    4.2344    2.6638   -0.1501 O   0  0  0  0  0  0  0  0  0  0  0  0
    3.0468    1.6927   -2.4689 O   0  0  0  0  0  0  0  0  0  0  0  0
    2.0329   -0.9891   -2.4245 O   0  0  0  0  0  0  0  0  0  0  0  0
    0.4057    1.3277   -2.0884 O   0  0  0  0  0  0  0  0  0  0  0  0
    1.9750    2.3335    0.1419 O   0  0  0  0  0  0  0  0  0  0  0  0
   -0.2326   -0.1222    1.7529 O   0  0  0  0  0  0  0  0  0  0  0  0
    3.2306    1.6894   -0.0595 C   0  0  1  0  0  0  0  0  0  0  0  0
    3.2328    0.8535   -1.3554 C   0  0  1  0  0  0  0  0  0  0  0  0
    2.0957   -0.1845   -1.2720 C   0  0  1  0  0  0  0  0  0  0  0  0
    0.7542    0.5219   -0.9899 C   0  0  1  0  0  0  0  0  0  0  0  0
    0.8927    1.4126    0.2727 C   0  0  1  0  0  0  0  0  0  0  0  0
    0.9414    0.6285    1.6042 C   0  0  0  0  0  0  0  0  0  0  0  0
    4.2838    3.1021    0.7394 H   0  0  0  0  0  0  0  0  0  0  0  0
    3.9397    2.0458   -2.7210 H   0  0  0  0  0  0  0  0  0  0  0  0
    1.8529   -0.4034   -3.2046 H   0  0  0  0  0  0  0  0  0  0  0  0
   -0.5676    1.5108   -2.0168 H   0  0  0  0  0  0  0  0  0  0  0  0
   -0.1831   -0.5395    2.6521 H   0  0  0  0  0  0  0  0  0  0  0  0
    3.4859    1.0282    0.7975 H   0  0  0  0  0  0  0  0  0  0  0  0
    4.1990    0.3047   -1.4574 H   0  0  0  0  0  0  0  0  0  0  0  0
    2.3179   -0.8627   -0.4206 H   0  0  0  0  0  0  0  0  0  0  0  0
   -0.0369   -0.2512   -0.8479 H   0  0  0  0  0  0  0  0  0  0  0  0
   -0.0382    2.0183    0.3382 H   0  0  0  0  0  0  0  0  0  0  0  0
    1.0107    1.3669    2.4345 H   0  0  0  0  0  0  0  0  0  0  0  0
    1.8124   -0.0551    1.6551 H   0  0  0  0  0  0  0  0  0  0  0  0
  1 13  1  0  0  0  0
  2 14  1  0  0  0  0
  3 15  1  0  0  0  0
  4 16  1  0  0  0  0
  5  7  1  0  0  0  0
  6 12  1  0  0  0  0
  6 17  1  0  0  0  0
  7  8  1  6  0  0  0
  7  1  1  0  0  0  0
  7 18  1  0  0  0  0
  8  9  1  1  0  0  0
  8  2  1  0  0  0  0
  8 19  1  0  0  0  0
  9 10  1  1  0  0  0
  9  3  1  0  0  0  0
  9 20  1  0  0  0  0
 10 11  1  1  0  0  0
 10  4  1  0  0  0  0
 10 21  1  0  0  0  0
 11  5  1  0  0  0  0
 11 12  1  0  0  0  0
 11 22  1  1  0  0  0
 12 23  1  0  0  0  0
 12 24  1  0  0  0  0
M  END
