
 OpenBabel11132208043D

 34 35  0  0  1  0  0  0  0  0999 V2000
    0.5392   -1.9588   -0.1774 O   0  0  0  0  0  0  0  0  0  0  0  0
    0.4698    1.3814    0.0410 N   0  0  0  0  0  0  0  0  0  0  0  0
   -0.1657    0.2052   -0.0012 N   0  0  0  0  0  0  0  0  0  0  0  0
    3.2925   -0.9114   -0.3151 N   0  0  0  0  0  0  0  0  0  0  0  0
    1.8126    1.1772   -0.0529 C   0  0  0  0  0  0  0  0  0  0  0  0
    2.0474   -0.2005   -0.1686 C   0  0  0  0  0  0  0  0  0  0  0  0
    0.7854   -0.7681   -0.0985 C   0  0  0  0  0  0  0  0  0  0  0  0
   -1.6003   -0.0333    0.0318 C   0  0  0  0  0  0  0  0  0  0  0  0
    2.8103    2.3056    0.0505 C   0  0  0  0  0  0  0  0  0  0  0  0
   -0.1296    2.7084    0.2494 C   0  0  0  0  0  0  0  0  0  0  0  0
    4.4596   -0.3200   -0.9465 C   0  0  0  0  0  0  0  0  0  0  0  0
    3.4016   -2.2967    0.1133 C   0  0  0  0  0  0  0  0  0  0  0  0
   -2.1210   -1.1747    0.6791 C   0  0  0  0  0  0  0  0  0  0  0  0
   -2.5067    0.8326   -0.6162 C   0  0  0  0  0  0  0  0  0  0  0  0
   -3.4968   -1.4216    0.7016 C   0  0  0  0  0  0  0  0  0  0  0  0
   -3.8813    0.5786   -0.5938 C   0  0  0  0  0  0  0  0  0  0  0  0
   -4.3766   -0.5444    0.0683 C   0  0  0  0  0  0  0  0  0  0  0  0
    3.8598    1.9799    0.1223 H   0  0  0  0  0  0  0  0  0  0  0  0
    2.6299    2.8623    0.9925 H   0  0  0  0  0  0  0  0  0  0  0  0
    2.6854    2.9993   -0.8067 H   0  0  0  0  0  0  0  0  0  0  0  0
    0.0594    3.3536   -0.6340 H   0  0  0  0  0  0  0  0  0  0  0  0
    0.3210    3.1810    1.1465 H   0  0  0  0  0  0  0  0  0  0  0  0
   -1.2070    2.6744    0.4726 H   0  0  0  0  0  0  0  0  0  0  0  0
    4.2374    0.6456   -1.4333 H   0  0  0  0  0  0  0  0  0  0  0  0
    5.2873   -0.2240   -0.2123 H   0  0  0  0  0  0  0  0  0  0  0  0
    4.7933   -0.9734   -1.7808 H   0  0  0  0  0  0  0  0  0  0  0  0
    4.4286   -2.6918   -0.0465 H   0  0  0  0  0  0  0  0  0  0  0  0
    2.7151   -2.9430   -0.4688 H   0  0  0  0  0  0  0  0  0  0  0  0
    3.1701   -2.3733    1.1967 H   0  0  0  0  0  0  0  0  0  0  0  0
   -1.4710   -1.8718    1.1886 H   0  0  0  0  0  0  0  0  0  0  0  0
   -2.1627    1.6931   -1.1712 H   0  0  0  0  0  0  0  0  0  0  0  0
   -3.8806   -2.2958    1.2116 H   0  0  0  0  0  0  0  0  0  0  0  0
   -4.5632    1.2508   -1.0987 H   0  0  0  0  0  0  0  0  0  0  0  0
   -5.4412   -0.7391    0.0839 H   0  0  0  0  0  0  0  0  0  0  0  0
  1  7  2  0  0  0  0
  2  3  1  0  0  0  0
  2  5  1  0  0  0  0
  2 10  1  0  0  0  0
  3  7  1  0  0  0  0
  3  8  1  0  0  0  0
  4  6  1  0  0  0  0
  4 11  1  0  0  0  0
  4 12  1  0  0  0  0
  5  6  2  0  0  0  0
  5  9  1  0  0  0  0
  6  7  1  0  0  0  0
  8 13  2  0  0  0  0
  8 14  1  0  0  0  0
  9 18  1  0  0  0  0
  9 19  1  0  0  0  0
  9 20  1  0  0  0  0
 10 21  1  0  0  0  0
 10 22  1  0  0  0  0
 10 23  1  0  0  0  0
 11 24  1  0  0  0  0
 11 25  1  0  0  0  0
 11 26  1  0  0  0  0
 12 27  1  0  0  0  0
 12 28  1  0  0  0  0
 12 29  1  0  0  0  0
 13 15  1  0  0  0  0
 13 30  1  0  0  0  0
 14 16  2  0  0  0  0
 14 31  1  0  0  0  0
 15 17  2  0  0  0  0
 15 32  1  0  0  0  0
 16 17  1  0  0  0  0
 16 33  1  0  0  0  0
 17 34  1  0  0  0  0
M  END
