
 OpenBabel05162317283D

 14 14  0  0  0  0  0  0  0  0999 V2000
   -0.4062    1.0268   -0.3758 C   0  0  0  0  0  0  0  0  0  0  0  0
   -1.0066   -0.2249   -0.5321 C   0  0  0  0  0  0  0  0  0  0  0  0
    0.9472    1.1204   -0.0478 C   0  0  0  0  0  0  0  0  0  0  0  0
    1.7055   -0.0375    0.1292 C   0  0  0  0  0  0  0  0  0  0  0  0
    1.1070   -1.2892   -0.0204 C   0  0  0  0  0  0  0  0  0  0  0  0
   -0.2464   -1.3825   -0.3485 C   0  0  0  0  0  0  0  0  0  0  0  0
   -2.3799   -0.3197   -0.8586 N   0  0  0  0  0  0  0  0  0  0  0  0
   -0.9906    1.9327   -0.4932 H   0  0  0  0  0  0  0  0  0  0  0  0
    1.4083    2.0942    0.0767 H   0  0  0  0  0  0  0  0  0  0  0  0
    2.7555    0.0351    0.3908 H   0  0  0  0  0  0  0  0  0  0  0  0
    1.6924   -2.1904    0.1253 H   0  0  0  0  0  0  0  0  0  0  0  0
   -0.7059   -2.3601   -0.4445 H   0  0  0  0  0  0  0  0  0  0  0  0
   -2.6828    0.5353   -1.4451 H   0  0  0  0  0  0  0  0  0  0  0  0
   -2.5664   -1.2202   -1.4252 H   0  0  0  0  0  0  0  0  0  0  0  0
  1  2  2  0  0  0  0
  1  8  1  0  0  0  0
  2  6  1  0  0  0  0
  2  7  1  0  0  0  0
  3  1  1  0  0  0  0
  3  9  1  0  0  0  0
  4  3  2  0  0  0  0
  4 10  1  0  0  0  0
  5  4  1  0  0  0  0
  5 11  1  0  0  0  0
  6  5  2  0  0  0  0
  6 12  1  0  0  0  0
  7 13  1  0  0  0  0
  7 14  1  0  0  0  0
M  END
