
 OpenBabel09132122513D

 26 27  0  0  1  0  0  0  0  0999 V2000
    0.5478    6.8041   -0.0814 O   0  0  0  0  0  0  0  0  0  0  0  0
    2.4791    5.5643   -0.3048 N   0  0  0  0  0  0  0  0  0  0  0  0
    3.7423    5.8071    0.0860 N   0  0  0  0  0  0  0  0  0  0  0  0
    3.7828    6.9992    0.7396 C   0  0  0  0  0  0  0  0  0  0  0  0
    1.9478    4.3839   -1.0040 C   0  0  0  0  0  0  0  0  0  0  0  0
    1.7389    6.6441    0.1120 C   0  0  0  0  0  0  0  0  0  0  0  0
    2.5275    7.5538    0.7637 C   0  0  0  0  0  0  0  0  0  0  0  0
    4.9173    4.9464   -0.0951 C   0  0  0  0  0  0  0  0  0  0  0  0
    4.9994    7.6352    1.3448 C   0  0  0  0  0  0  0  0  0  0  0  0
    2.7551    3.5122   -1.7767 C   0  0  0  0  0  0  0  0  0  0  0  0
    0.5665    4.0631   -0.9255 C   0  0  0  0  0  0  0  0  0  0  0  0
    2.2139    2.3988   -2.4275 C   0  0  0  0  0  0  0  0  0  0  0  0
    0.0343    2.9466   -1.5760 C   0  0  0  0  0  0  0  0  0  0  0  0
    0.8565    2.1153   -2.3274 C   0  0  0  0  0  0  0  0  0  0  0  0
    2.2272    8.4985    1.1991 H   0  0  0  0  0  0  0  0  0  0  0  0
    5.2210    4.9283   -1.1586 H   0  0  0  0  0  0  0  0  0  0  0  0
    4.7135    3.9327    0.3088 H   0  0  0  0  0  0  0  0  0  0  0  0
    5.8038    5.3402    0.4401 H   0  0  0  0  0  0  0  0  0  0  0  0
    5.7619    7.8089    0.5572 H   0  0  0  0  0  0  0  0  0  0  0  0
    4.7418    8.6111    1.8085 H   0  0  0  0  0  0  0  0  0  0  0  0
    5.4185    6.9737    2.1313 H   0  0  0  0  0  0  0  0  0  0  0  0
    3.7990    3.6564   -1.9295 H   0  0  0  0  0  0  0  0  0  0  0  0
   -0.1296    4.6448   -0.3473 H   0  0  0  0  0  0  0  0  0  0  0  0
    2.8536    1.7537   -3.0165 H   0  0  0  0  0  0  0  0  0  0  0  0
   -1.0221    2.7247   -1.4925 H   0  0  0  0  0  0  0  0  0  0  0  0
    0.4424    1.2517   -2.8316 H   0  0  0  0  0  0  0  0  0  0  0  0
  1  6  2  0  0  0  0
  2  3  1  0  0  0  0
  2  5  1  0  0  0  0
  2  6  1  0  0  0  0
  3  4  1  0  0  0  0
  3  8  1  0  0  0  0
  4  7  2  0  0  0  0
  4  9  1  0  0  0  0
  5 10  2  0  0  0  0
  5 11  1  0  0  0  0
  6  7  1  0  0  0  0
  7 15  1  0  0  0  0
  8 16  1  0  0  0  0
  8 17  1  0  0  0  0
  8 18  1  0  0  0  0
  9 19  1  0  0  0  0
  9 20  1  0  0  0  0
  9 21  1  0  0  0  0
 10 12  1  0  0  0  0
 10 22  1  0  0  0  0
 11 13  2  0  0  0  0
 11 23  1  0  0  0  0
 12 14  2  0  0  0  0
 12 24  1  0  0  0  0
 13 14  1  0  0  0  0
 13 25  1  0  0  0  0
 14 26  1  0  0  0  0
M  END
