
 OpenBabel09132117513D

 42 45  0  0  1  0  0  0  0  0999 V2000
   -1.5419   -3.2981   -1.3894 O   0  0  0  0  0  0  0  0  0  0  0  0
   -2.1656   -2.7808    1.3600 O   0  0  0  0  0  0  0  0  0  0  0  0
   -0.6947   -4.5365    1.3241 O   0  0  0  0  0  0  0  0  0  0  0  0
   -2.6070   -3.7103   -0.7107 O   0  0  0  0  0  0  0  0  0  0  0  0
   -0.3423   -6.6703    0.8373 O   0  0  0  0  0  0  0  0  0  0  0  0
   -0.4980   -2.8798   -0.5155 C   0  0  2  0  0  0  0  0  0  0  0  0
   -0.3538   -1.3439   -0.7589 C   0  0  2  0  0  0  0  0  0  0  0  0
    0.7787   -3.6414   -0.9416 C   0  0  1  0  0  0  0  0  0  0  0  0
    0.9596   -0.7685   -0.1271 C   0  0  1  0  0  0  0  0  0  0  0  0
   -0.8422   -3.1953    1.0054 C   0  0  1  0  0  0  0  0  0  0  0  0
    2.0141   -3.0768   -0.2034 C   0  0  0  0  0  0  0  0  0  0  0  0
   -1.5923   -0.5797   -0.2130 C   0  0  0  0  0  0  0  0  0  0  0  0
    2.1842   -1.5942   -0.5587 C   0  0  0  0  0  0  0  0  0  0  0  0
    0.5388   -5.1717   -0.7694 C   0  0  2  0  0  0  0  0  0  0  0  0
   -3.0057   -2.7107    0.2157 C   0  0  2  0  0  0  0  0  0  0  0  0
   -2.9679   -1.2644   -0.3904 C   0  0  0  0  0  0  0  0  0  0  0  0
    1.1892    0.7063   -0.4986 C   0  0  0  0  0  0  0  0  0  0  0  0
   -0.1642   -5.5016    0.5311 C   0  0  0  0  0  0  0  0  0  0  0  0
    1.8233   -5.9969   -0.9475 C   0  0  0  0  0  0  0  0  0  0  0  0
   -4.4390   -3.0554    0.6255 C   0  0  0  0  0  0  0  0  0  0  0  0
   -0.3007   -1.2116   -1.8641 H   0  0  0  0  0  0  0  0  0  0  0  0
    0.9745   -3.4706   -2.0257 H   0  0  0  0  0  0  0  0  0  0  0  0
    0.8977   -0.8255    0.9805 H   0  0  0  0  0  0  0  0  0  0  0  0
   -0.1436   -2.6522    1.6689 H   0  0  0  0  0  0  0  0  0  0  0  0
    2.9351   -3.5947   -0.5422 H   0  0  0  0  0  0  0  0  0  0  0  0
    1.9325   -3.2122    0.8953 H   0  0  0  0  0  0  0  0  0  0  0  0
   -1.6319    0.4476   -0.6314 H   0  0  0  0  0  0  0  0  0  0  0  0
   -1.4597   -0.4670    0.8862 H   0  0  0  0  0  0  0  0  0  0  0  0
    3.0961   -1.2064   -0.0538 H   0  0  0  0  0  0  0  0  0  0  0  0
    2.3330   -1.4983   -1.6578 H   0  0  0  0  0  0  0  0  0  0  0  0
   -0.1602   -5.5014   -1.5702 H   0  0  0  0  0  0  0  0  0  0  0  0
   -3.6679   -0.6093    0.1750 H   0  0  0  0  0  0  0  0  0  0  0  0
   -3.3111   -1.2810   -1.4473 H   0  0  0  0  0  0  0  0  0  0  0  0
    1.2622    0.8250   -1.6009 H   0  0  0  0  0  0  0  0  0  0  0  0
    0.3713    1.3508   -0.1192 H   0  0  0  0  0  0  0  0  0  0  0  0
    2.1310    1.0739   -0.0379 H   0  0  0  0  0  0  0  0  0  0  0  0
    1.5873   -7.0823   -0.9276 H   0  0  0  0  0  0  0  0  0  0  0  0
    2.2927   -5.7670   -1.9276 H   0  0  0  0  0  0  0  0  0  0  0  0
    2.5489   -5.7955   -0.1320 H   0  0  0  0  0  0  0  0  0  0  0  0
   -4.8104   -2.3392    1.3895 H   0  0  0  0  0  0  0  0  0  0  0  0
   -5.1128   -3.0221   -0.2577 H   0  0  0  0  0  0  0  0  0  0  0  0
   -4.4746   -4.0770    1.0610 H   0  0  0  0  0  0  0  0  0  0  0  0
  1  4  1  0  0  0  0
  1  6  1  0  0  0  0
  2 10  1  0  0  0  0
  2 15  1  0  0  0  0
  3 10  1  0  0  0  0
  3 18  1  0  0  0  0
  4 15  1  0  0  0  0
  5 18  2  0  0  0  0
  6  7  1  6  0  0  0
  7  9  1  1  0  0  0
  7 12  1  0  0  0  0
  7 21  1  0  0  0  0
  8  6  1  1  0  0  0
  8 11  1  0  0  0  0
  8 22  1  0  0  0  0
  9 13  1  0  0  0  0
  9 17  1  0  0  0  0
  9 23  1  1  0  0  0
 10  6  1  6  0  0  0
 10 24  1  0  0  0  0
 11 13  1  0  0  0  0
 11 25  1  0  0  0  0
 11 26  1  0  0  0  0
 12 16  1  0  0  0  0
 12 27  1  0  0  0  0
 12 28  1  0  0  0  0
 13 29  1  0  0  0  0
 13 30  1  0  0  0  0
 14  8  1  6  0  0  0
 14 18  1  0  0  0  0
 14 19  1  0  0  0  0
 14 31  1  0  0  0  0
 15 16  1  0  0  0  0
 15 20  1  1  0  0  0
 16 32  1  0  0  0  0
 16 33  1  0  0  0  0
 17 34  1  0  0  0  0
 17 35  1  0  0  0  0
 17 36  1  0  0  0  0
 19 37  1  0  0  0  0
 19 38  1  0  0  0  0
 19 39  1  0  0  0  0
 20 40  1  0  0  0  0
 20 41  1  0  0  0  0
 20 42  1  0  0  0  0
M  END
