
 OpenBabel05252316433D

 32 36  0  0  0  0  0  0  0  0999 V2000
   -0.1715   -0.5571   -0.0001 C   0  0  0  0  0  0  0  0  0  0  0  0
   -0.4022    0.7925   -0.0001 C   0  0  0  0  0  0  0  0  0  0  0  0
   -1.3442   -1.2706   -0.0001 C   0  0  0  0  0  0  0  0  0  0  0  0
    1.0928   -1.1345   -0.0001 C   0  0  0  0  0  0  0  0  0  0  0  0
   -1.8547    0.9717   -0.0001 C   0  0  0  0  0  0  0  0  0  0  0  0
   -2.4316   -0.2922   -0.0001 C   0  0  0  0  0  0  0  0  0  0  0  0
    2.2092   -0.2472   -0.0001 C   0  0  0  0  0  0  0  0  0  0  0  0
    0.6573    1.6924   -0.0001 C   0  0  0  0  0  0  0  0  0  0  0  0
    1.9752    1.1742   -0.0001 C   0  0  0  0  0  0  0  0  0  0  0  0
   -1.3249   -2.6630   -0.0001 C   0  0  0  0  0  0  0  0  0  0  0  0
    1.1344   -2.5525   -0.0001 C   0  0  0  0  0  0  0  0  0  0  0  0
   -2.6343    2.1265   -0.0001 C   0  0  0  0  0  0  0  0  0  0  0  0
   -3.8146   -0.4603   -0.0001 C   0  0  0  0  0  0  0  0  0  0  0  0
   -0.0682   -3.3037   -0.0001 C   0  0  0  0  0  0  0  0  0  0  0  0
    3.5416   -0.7093   -0.0001 C   0  0  0  0  0  0  0  0  0  0  0  0
    3.0644    2.0581   -0.0001 C   0  0  0  0  0  0  0  0  0  0  0  0
   -4.0328    1.9780   -0.0001 C   0  0  0  0  0  0  0  0  0  0  0  0
   -4.6191    0.6932   -0.0001 C   0  0  0  0  0  0  0  0  0  0  0  0
    4.6071    0.1943   -0.0001 C   0  0  0  0  0  0  0  0  0  0  0  0
    4.3706    1.5686   -0.0001 C   0  0  0  0  0  0  0  0  0  0  0  0
    0.4665    2.7587   -0.0001 H   0  0  0  0  0  0  0  0  0  0  0  0
   -2.2432   -3.2352   -0.0001 H   0  0  0  0  0  0  0  0  0  0  0  0
    2.0676   -3.0948   -0.0001 H   0  0  0  0  0  0  0  0  0  0  0  0
   -2.1791    3.1081   -0.0001 H   0  0  0  0  0  0  0  0  0  0  0  0
   -4.2575   -1.4476   -0.0001 H   0  0  0  0  0  0  0  0  0  0  0  0
   -0.0222   -4.3850   -0.0001 H   0  0  0  0  0  0  0  0  0  0  0  0
    3.7810   -1.7617   -0.0001 H   0  0  0  0  0  0  0  0  0  0  0  0
    2.9054    3.1301   -0.0001 H   0  0  0  0  0  0  0  0  0  0  0  0
   -4.6650    2.8564   -0.0001 H   0  0  0  0  0  0  0  0  0  0  0  0
   -5.6968    0.5951   -0.0001 H   0  0  0  0  0  0  0  0  0  0  0  0
    5.6249   -0.1745   -0.0001 H   0  0  0  0  0  0  0  0  0  0  0  0
    5.2046    2.2586   -0.0001 H   0  0  0  0  0  0  0  0  0  0  0  0
  1  2  1  0  0  0  0
  1  3  1  0  0  0  0
  1  4  2  0  0  0  0
  2  5  1  0  0  0  0
  2  8  2  0  0  0  0
  3  6  1  0  0  0  0
  3 10  2  0  0  0  0
  4  7  1  0  0  0  0
  4 11  1  0  0  0  0
  5  6  1  0  0  0  0
  5 12  2  0  0  0  0
  6 13  2  0  0  0  0
  7  9  1  0  0  0  0
  7 15  2  0  0  0  0
  8  9  1  0  0  0  0
  8 21  1  0  0  0  0
  9 16  2  0  0  0  0
 10 14  1  0  0  0  0
 10 22  1  0  0  0  0
 11 14  2  0  0  0  0
 11 23  1  0  0  0  0
 12 17  1  0  0  0  0
 12 24  1  0  0  0  0
 13 18  1  0  0  0  0
 13 25  1  0  0  0  0
 14 26  1  0  0  0  0
 15 19  1  0  0  0  0
 15 27  1  0  0  0  0
 16 20  1  0  0  0  0
 16 28  1  0  0  0  0
 17 18  2  0  0  0  0
 17 29  1  0  0  0  0
 18 30  1  0  0  0  0
 19 20  2  0  0  0  0
 19 31  1  0  0  0  0
 20 32  1  0  0  0  0
M  END
