
 OpenBabel05252316503D

 16 16  0  0  0  0  0  0  0  0999 V2000
    0.4307    1.3050   -3.4339 S   0  0  0  0  0  0  0  0  0  0  0  0
   -0.2296    0.0601   -1.0783 C   0  0  0  0  0  0  0  0  0  0  0  0
    0.8488    0.1109   -2.1249 C   0  0  0  0  0  0  0  0  0  0  0  0
   -0.5510    1.2083   -0.3339 C   0  0  0  0  0  0  0  0  0  0  0  0
   -0.9225   -1.1367   -0.8286 C   0  0  0  0  0  0  0  0  0  0  0  0
   -1.5520    1.1593    0.6412 C   0  0  0  0  0  0  0  0  0  0  0  0
   -1.9230   -1.1811    0.1476 C   0  0  0  0  0  0  0  0  0  0  0  0
   -2.2378   -0.0343    0.8816 C   0  0  0  0  0  0  0  0  0  0  0  0
    1.8091    0.4133   -1.6570 H   0  0  0  0  0  0  0  0  0  0  0  0
    1.0236   -0.8794   -2.5976 H   0  0  0  0  0  0  0  0  0  0  0  0
   -0.0261    2.1394   -0.5088 H   0  0  0  0  0  0  0  0  0  0  0  0
   -0.6907   -2.0343   -1.3882 H   0  0  0  0  0  0  0  0  0  0  0  0
   -1.7957    2.0467    1.2110 H   0  0  0  0  0  0  0  0  0  0  0  0
   -2.4543   -2.1053    0.3353 H   0  0  0  0  0  0  0  0  0  0  0  0
   -3.0123   -0.0708    1.6368 H   0  0  0  0  0  0  0  0  0  0  0  0
   -0.5363    0.4528   -4.0009 H   0  0  0  0  0  0  0  0  0  0  0  0
  1  3  1  0  0  0  0
  1 16  1  0  0  0  0
  2  3  1  0  0  0  0
  2  4  2  0  0  0  0
  2  5  1  0  0  0  0
  3  9  1  0  0  0  0
  3 10  1  0  0  0  0
  4  6  1  0  0  0  0
  4 11  1  0  0  0  0
  5  7  2  0  0  0  0
  5 12  1  0  0  0  0
  6  8  2  0  0  0  0
  6 13  1  0  0  0  0
  7  8  1  0  0  0  0
  7 14  1  0  0  0  0
  8 15  1  0  0  0  0
M  END
