
 OpenBabel10222414253D

 24 24  0  0  0  0  0  0  0  0999 V2000
   -2.7768    2.2387   -1.4282 C   0  0  2  0  0  0  0  0  0  0  0  0
   -2.8934    0.8335   -1.4099 O   0  0  0  0  0  0  0  0  0  0  0  0
   -2.1804    2.7398   -2.7576 C   0  0  0  0  0  0  0  0  0  0  0  0
   -1.9015    2.7533   -0.2709 C   0  0  2  0  0  0  0  0  0  0  0  0
   -3.8030    2.6525   -1.3233 H   0  0  0  0  0  0  0  0  0  0  0  0
   -0.8373    2.3023   -2.9201 O   0  0  0  0  0  0  0  0  0  0  0  0
   -2.2450    3.8483   -2.8299 H   0  0  0  0  0  0  0  0  0  0  0  0
   -2.7897    2.3422   -3.5965 H   0  0  0  0  0  0  0  0  0  0  0  0
   -0.4312    2.3491   -0.5030 C   0  0  2  0  0  0  0  0  0  0  0  0
   -2.3820    2.3080    0.9732 O   0  0  0  0  0  0  0  0  0  0  0  0
   -1.9518    3.8651   -0.2708 H   0  0  0  0  0  0  0  0  0  0  0  0
   -0.3486    1.2378   -0.4796 H   0  0  0  0  0  0  0  0  0  0  0  0
    0.3899    2.9023    0.4945 O   0  0  0  0  0  0  0  0  0  0  0  0
    0.0225    2.8389   -1.9157 C   0  0  1  0  0  0  0  0  0  0  0  0
    1.4527    2.3491   -2.2320 C   0  0  0  0  0  0  0  0  0  0  0  0
    0.0083    4.2499   -1.9927 O   0  0  0  0  0  0  0  0  0  0  0  0
   -2.0601    0.4317   -1.7664 H   0  0  0  0  0  0  0  0  0  0  0  0
    0.6570    4.6073   -1.3317 H   0  0  0  0  0  0  0  0  0  0  0  0
    1.5136    0.9466   -2.2653 O   0  0  0  0  0  0  0  0  0  0  0  0
    2.1889    2.7610   -1.5022 H   0  0  0  0  0  0  0  0  0  0  0  0
    1.7599    2.7289   -3.2300 H   0  0  0  0  0  0  0  0  0  0  0  0
    1.8308    0.6463   -1.3738 H   0  0  0  0  0  0  0  0  0  0  0  0
   -2.2472    1.3255    1.0177 H   0  0  0  0  0  0  0  0  0  0  0  0
    0.3247    2.3079    1.2870 H   0  0  0  0  0  0  0  0  0  0  0  0
  1  2  1  0  0  0  0
  1  3  1  0  0  0  0
  1  4  1  1  0  0  0
  1  5  1  0  0  0  0
  2 17  1  0  0  0  0
  3  6  1  0  0  0  0
  3  7  1  0  0  0  0
  3  8  1  0  0  0  0
  4  9  1  6  0  0  0
  4 10  1  0  0  0  0
  4 11  1  0  0  0  0
  9 12  1  0  0  0  0
  9 13  1  0  0  0  0
  9 14  1  6  0  0  0
 10 23  1  0  0  0  0
 13 24  1  0  0  0  0
 14  6  1  0  0  0  0
 14 15  1  0  0  0  0
 14 16  1  6  0  0  0
 15 19  1  0  0  0  0
 15 20  1  0  0  0  0
 15 21  1  0  0  0  0
 16 18  1  0  0  0  0
 19 22  1  0  0  0  0
M  END
