
 OpenBabel10222213443D

 31 31  0  0  1  0  0  0  0  0999 V2000
   -0.5024   -1.8288   -1.6157 O   0  0  0  0  0  0  0  0  0  0  0  0
    0.3076    1.1900    1.9265 O   0  0  0  0  0  0  0  0  0  0  0  0
   -3.6656    0.8367   -0.0136 O   0  0  0  0  0  0  0  0  0  0  0  0
   -2.0655   -0.4741   -0.8343 N   0  0  0  0  0  0  0  0  0  0  0  0
   -1.6608    1.0336    0.9316 N   0  0  0  0  0  0  0  0  0  0  0  0
    0.3010   -0.3340    0.0766 C   0  0  0  0  0  0  0  0  0  0  0  0
    1.4324    0.3864   -0.8064 C   0  0  1  0  0  0  0  0  0  0  0  0
    0.8934   -1.4977    0.9366 C   0  0  0  0  0  0  0  0  0  0  0  0
    2.5442    1.1010    0.0337 C   0  0  0  0  0  0  0  0  0  0  0  0
   -0.7826   -0.9174   -0.8515 C   0  0  0  0  0  0  0  0  0  0  0  0
   -0.3518    0.6880    1.0283 C   0  0  0  0  0  0  0  0  0  0  0  0
    2.1121   -0.5547   -1.8378 C   0  0  0  0  0  0  0  0  0  0  0  0
   -0.1419   -2.2292    1.8030 C   0  0  0  0  0  0  0  0  0  0  0  0
    3.5602    1.9040   -0.7876 C   0  0  0  0  0  0  0  0  0  0  0  0
   -2.4959    0.4832    0.0200 C   0  0  0  0  0  0  0  0  0  0  0  0
    0.9168    1.1802   -1.3927 H   0  0  0  0  0  0  0  0  0  0  0  0
    1.6774   -1.1074    1.6182 H   0  0  0  0  0  0  0  0  0  0  0  0
    1.3653   -2.2565    0.2783 H   0  0  0  0  0  0  0  0  0  0  0  0
    3.1021    0.3673    0.6517 H   0  0  0  0  0  0  0  0  0  0  0  0
    2.0922    1.8577    0.6956 H   0  0  0  0  0  0  0  0  0  0  0  0
    2.6846   -1.3613   -1.3363 H   0  0  0  0  0  0  0  0  0  0  0  0
    2.8057    0.0007   -2.4961 H   0  0  0  0  0  0  0  0  0  0  0  0
    1.4011   -0.9943   -2.5557 H   0  0  0  0  0  0  0  0  0  0  0  0
   -0.6162   -1.5354    2.5278 H   0  0  0  0  0  0  0  0  0  0  0  0
   -0.9305   -2.6927    1.1744 H   0  0  0  0  0  0  0  0  0  0  0  0
    0.3619   -3.0360    2.3761 H   0  0  0  0  0  0  0  0  0  0  0  0
    4.2483    2.4369   -0.0972 H   0  0  0  0  0  0  0  0  0  0  0  0
    3.0390    2.6577   -1.4155 H   0  0  0  0  0  0  0  0  0  0  0  0
    4.1917    1.2551   -1.4252 H   0  0  0  0  0  0  0  0  0  0  0  0
   -2.7450   -0.8931   -1.4896 H   0  0  0  0  0  0  0  0  0  0  0  0
   -2.0397    1.7343    1.5891 H   0  0  0  0  0  0  0  0  0  0  0  0
  1 10  2  0  0  0  0
  2 11  2  0  0  0  0
  3 15  2  0  0  0  0
  4 10  1  0  0  0  0
  4 15  1  0  0  0  0
  4 30  1  0  0  0  0
  5 11  1  0  0  0  0
  5 15  1  0  0  0  0
  5 31  1  0  0  0  0
  6  7  1  0  0  0  0
  6  8  1  0  0  0  0
  6 10  1  0  0  0  0
  6 11  1  0  0  0  0
  7  9  1  0  0  0  0
  7 12  1  0  0  0  0
  7 16  1  6  0  0  0
  8 13  1  0  0  0  0
  8 17  1  0  0  0  0
  8 18  1  0  0  0  0
  9 14  1  0  0  0  0
  9 19  1  0  0  0  0
  9 20  1  0  0  0  0
 12 21  1  0  0  0  0
 12 22  1  0  0  0  0
 12 23  1  0  0  0  0
 13 24  1  0  0  0  0
 13 25  1  0  0  0  0
 13 26  1  0  0  0  0
 14 27  1  0  0  0  0
 14 28  1  0  0  0  0
 14 29  1  0  0  0  0
M  END
