
 OpenBabel11072209013D

 31 31  0  0  0  0  0  0  0  0999 V2000
    0.3248   -0.6690   -2.3920 O   0  0  0  0  0  0  0  0  0  0  0  0
    0.4258    1.5996    1.7386 O   0  0  0  0  0  0  0  0  0  0  0  0
    2.5571   -2.2546    1.1170 O   0  0  0  0  0  0  0  0  0  0  0  0
    1.4433   -1.4633   -0.6422 N   0  0  0  0  0  0  0  0  0  0  0  0
    1.4990   -0.3188    1.4260 N   0  0  0  0  0  0  0  0  0  0  0  0
    0.1942    0.7223   -0.4663 C   0  0  0  0  0  0  0  0  0  0  0  0
   -1.3651    0.7485   -0.4488 C   0  0  0  0  0  0  0  0  0  0  0  0
    0.7627    1.9582   -1.2380 C   0  0  0  0  0  0  0  0  0  0  0  0
   -2.0011   -0.4807    0.2315 C   0  0  0  0  0  0  0  0  0  0  0  0
    0.6620   -0.5187   -1.2252 C   0  0  0  0  0  0  0  0  0  0  0  0
    0.7221    0.6970    0.9691 C   0  0  0  0  0  0  0  0  0  0  0  0
   -3.5313   -0.3860    0.2112 C   0  0  0  0  0  0  0  0  0  0  0  0
    0.3947    3.3466   -0.6983 C   0  0  0  0  0  0  0  0  0  0  0  0
    1.8552   -1.3710    0.6470 C   0  0  0  0  0  0  0  0  0  0  0  0
   -4.1683   -1.5984    0.8841 C   0  0  0  0  0  0  0  0  0  0  0  0
   -1.7407    0.8078   -1.4947 H   0  0  0  0  0  0  0  0  0  0  0  0
   -1.7181    1.6534    0.0898 H   0  0  0  0  0  0  0  0  0  0  0  0
    0.4028    1.9230   -2.2905 H   0  0  0  0  0  0  0  0  0  0  0  0
    1.8733    1.8879   -1.2610 H   0  0  0  0  0  0  0  0  0  0  0  0
   -1.6919   -1.4069   -0.2993 H   0  0  0  0  0  0  0  0  0  0  0  0
   -1.6580   -0.5440    1.2869 H   0  0  0  0  0  0  0  0  0  0  0  0
   -3.8883   -0.3310   -0.8404 H   0  0  0  0  0  0  0  0  0  0  0  0
   -3.8563    0.5326    0.7468 H   0  0  0  0  0  0  0  0  0  0  0  0
   -0.7023    3.5055   -0.7055 H   0  0  0  0  0  0  0  0  0  0  0  0
    0.7916    3.5118    0.3217 H   0  0  0  0  0  0  0  0  0  0  0  0
    0.8489    4.1190   -1.3541 H   0  0  0  0  0  0  0  0  0  0  0  0
    1.7339   -2.2826   -1.1996 H   0  0  0  0  0  0  0  0  0  0  0  0
    1.8285   -0.2917    2.4043 H   0  0  0  0  0  0  0  0  0  0  0  0
   -3.8456   -1.6651    1.9450 H   0  0  0  0  0  0  0  0  0  0  0  0
   -3.8778   -2.5309    0.3548 H   0  0  0  0  0  0  0  0  0  0  0  0
   -5.2741   -1.5024    0.8542 H   0  0  0  0  0  0  0  0  0  0  0  0
  1 10  2  0  0  0  0
  2 11  2  0  0  0  0
  3 14  2  0  0  0  0
  4 10  1  0  0  0  0
  4 14  1  0  0  0  0
  4 27  1  0  0  0  0
  5 11  1  0  0  0  0
  5 14  1  0  0  0  0
  5 28  1  0  0  0  0
  6  7  1  0  0  0  0
  6  8  1  0  0  0  0
  6 10  1  0  0  0  0
  6 11  1  0  0  0  0
  7  9  1  0  0  0  0
  7 16  1  0  0  0  0
  7 17  1  0  0  0  0
  8 13  1  0  0  0  0
  8 18  1  0  0  0  0
  8 19  1  0  0  0  0
  9 12  1  0  0  0  0
  9 20  1  0  0  0  0
  9 21  1  0  0  0  0
 12 15  1  0  0  0  0
 12 22  1  0  0  0  0
 12 23  1  0  0  0  0
 13 24  1  0  0  0  0
 13 25  1  0  0  0  0
 13 26  1  0  0  0  0
 15 29  1  0  0  0  0
 15 30  1  0  0  0  0
 15 31  1  0  0  0  0
M  END
