
 OpenBabel11072209343D

 28 28  0  0  0  0  0  0  0  0999 V2000
    1.3368    0.1754    0.0573 O   0  0  0  0  0  0  0  0  0  0  0  0
    0.4099    2.2119    0.1663 O   0  0  0  0  0  0  0  0  0  0  0  0
   -4.9475   -1.1891   -0.0819 O   0  0  0  0  0  0  0  0  0  0  0  0
    3.5840   -0.5916    0.0346 C   0  0  0  0  0  0  0  0  0  0  0  0
    5.0515   -0.1503    0.0740 C   0  0  0  0  0  0  0  0  0  0  0  0
    2.6453    0.6123    0.0949 C   0  0  0  0  0  0  0  0  0  0  0  0
    5.9895   -1.3523    0.0139 C   0  0  0  0  0  0  0  0  0  0  0  0
   -1.1093    0.4239    0.0483 C   0  0  0  0  0  0  0  0  0  0  0  0
    0.2575    0.9994    0.0947 C   0  0  0  0  0  0  0  0  0  0  0  0
   -2.2429    1.2574    0.0859 C   0  0  0  0  0  0  0  0  0  0  0  0
   -1.2913   -0.9685   -0.0343 C   0  0  0  0  0  0  0  0  0  0  0  0
   -3.5282    0.7086    0.0418 C   0  0  0  0  0  0  0  0  0  0  0  0
   -2.5779   -1.5140   -0.0782 C   0  0  0  0  0  0  0  0  0  0  0  0
   -3.7012   -0.6763   -0.0403 C   0  0  0  0  0  0  0  0  0  0  0  0
    3.3910   -1.1546   -0.9052 H   0  0  0  0  0  0  0  0  0  0  0  0
    3.3739   -1.2583    0.8999 H   0  0  0  0  0  0  0  0  0  0  0  0
    5.2479    0.4114    1.0133 H   0  0  0  0  0  0  0  0  0  0  0  0
    5.2651    0.5150   -0.7910 H   0  0  0  0  0  0  0  0  0  0  0  0
    2.8225    1.1760    1.0377 H   0  0  0  0  0  0  0  0  0  0  0  0
    2.8398    1.2802   -0.7735 H   0  0  0  0  0  0  0  0  0  0  0  0
    5.8122   -2.0241    0.8807 H   0  0  0  0  0  0  0  0  0  0  0  0
    5.8294   -1.9204   -0.9272 H   0  0  0  0  0  0  0  0  0  0  0  0
    7.0434   -1.0039    0.0439 H   0  0  0  0  0  0  0  0  0  0  0  0
   -2.1375    2.3333    0.1493 H   0  0  0  0  0  0  0  0  0  0  0  0
   -0.4406   -1.6378   -0.0651 H   0  0  0  0  0  0  0  0  0  0  0  0
   -4.3911    1.3620    0.0715 H   0  0  0  0  0  0  0  0  0  0  0  0
   -2.6999   -2.5881   -0.1417 H   0  0  0  0  0  0  0  0  0  0  0  0
   -5.1105   -2.1415   -0.1387 H   0  0  0  0  0  0  0  0  0  0  0  0
  1  6  1  0  0  0  0
  1  9  1  0  0  0  0
  2  9  2  0  0  0  0
  3 14  1  0  0  0  0
  3 28  1  0  0  0  0
  4  5  1  0  0  0  0
  4  6  1  0  0  0  0
  4 15  1  0  0  0  0
  4 16  1  0  0  0  0
  5  7  1  0  0  0  0
  5 17  1  0  0  0  0
  5 18  1  0  0  0  0
  6 19  1  0  0  0  0
  6 20  1  0  0  0  0
  7 21  1  0  0  0  0
  7 22  1  0  0  0  0
  7 23  1  0  0  0  0
  8  9  1  0  0  0  0
  8 10  2  0  0  0  0
  8 11  1  0  0  0  0
 10 12  1  0  0  0  0
 10 24  1  0  0  0  0
 11 13  2  0  0  0  0
 11 25  1  0  0  0  0
 12 14  2  0  0  0  0
 12 26  1  0  0  0  0
 13 14  1  0  0  0  0
 13 27  1  0  0  0  0
M  END
