
 OpenBabel11272310013D

  6  5  0  0  0  0  0  0  0  0999 V2000
   -0.8698   -1.1076    0.4323 O   0  0  0  0  0  0  0  0  0  0  0  0
   -1.1381    1.0645    0.4832 O   0  0  0  0  0  0  0  0  0  0  0  0
    0.8157    0.2202   -0.2688 O   0  0  0  0  0  0  0  0  0  0  0  0
   -0.3026    0.0716    0.1777 C   0  0  0  0  0  0  0  0  0  0  0  0
   -0.1907   -1.7624    0.1802 H   0  0  0  0  0  0  0  0  0  0  0  0
   -0.6401    1.8757    0.2654 H   0  0  0  0  0  0  0  0  0  0  0  0
  1  4  1  0  0  0  0
  1  5  1  0  0  0  0
  2  4  1  0  0  0  0
  2  6  1  0  0  0  0
  3  4  2  0  0  0  0
M  END
