
 OpenBabel11072209043D

  8  7  0  0  0  0  0  0  0  0999 V2000
   -0.3528    2.4386    1.7139 Cl  0  0  0  0  0  0  0  0  0  0  0  0
   -2.1442    0.4424    0.0542 O   0  0  0  0  0  0  0  0  0  0  0  0
   -0.2761   -0.7740    0.0619 O   0  0  0  0  0  0  0  0  0  0  0  0
    0.0467    1.5580    0.2190 C   0  0  0  0  0  0  0  0  0  0  0  0
   -0.8002    0.3289    0.1087 C   0  0  0  0  0  0  0  0  0  0  0  0
   -0.1408    2.2159   -0.6550 H   0  0  0  0  0  0  0  0  0  0  0  0
    1.1247    1.2899    0.2401 H   0  0  0  0  0  0  0  0  0  0  0  0
   -2.7140   -0.3363   -0.0192 H   0  0  0  0  0  0  0  0  0  0  0  0
  1  4  1  0  0  0  0
  2  5  1  0  0  0  0
  2  8  1  0  0  0  0
  3  5  2  0  0  0  0
  4  5  1  0  0  0  0
  4  6  1  0  0  0  0
  4  7  1  0  0  0  0
M  END
