
 OpenBabel10212217323D

  6  5  0  0  0  0  0  0  0  0999 V2000
   -2.0819   -0.5214   -0.0000 Cl  0  0  0  0  0  0  0  0  0  0  0  0
    0.5158    2.0080   -0.0001 N   0  0  0  0  0  0  0  0  0  0  0  0
   -1.9941    1.2546   -0.0001 C   0  0  0  0  0  0  0  0  0  0  0  0
   -0.5925    1.6750   -0.0001 C   0  0  0  0  0  0  0  0  0  0  0  0
   -2.4987    1.6495   -0.9058 H   0  0  0  0  0  0  0  0  0  0  0  0
   -2.4987    1.6495    0.9056 H   0  0  0  0  0  0  0  0  0  0  0  0
  1  3  1  0  0  0  0
  2  4  3  0  0  0  0
  3  4  1  0  0  0  0
  3  5  1  0  0  0  0
  3  6  1  0  0  0  0
M  END
