
 OpenBabel11072209093D

 19 19  0  0  0  0  0  0  0  0999 V2000
    2.8516    0.0063    0.0000 Cl  0  0  0  0  0  0  0  0  0  0  0  0
   -3.0769   -0.0049   -0.0002 O   0  0  0  0  0  0  0  0  0  0  0  0
    0.3701    1.2157   -0.0002 C   0  0  0  0  0  0  0  0  0  0  0  0
    0.3825   -1.2284    0.0001 C   0  0  0  0  0  0  0  0  0  0  0  0
    1.0834   -0.0027   -0.0000 C   0  0  0  0  0  0  0  0  0  0  0  0
   -1.0336    1.1960   -0.0002 C   0  0  0  0  0  0  0  0  0  0  0  0
   -1.0213   -1.2230    0.0000 C   0  0  0  0  0  0  0  0  0  0  0  0
   -1.7284   -0.0148   -0.0001 C   0  0  0  0  0  0  0  0  0  0  0  0
    1.0941    2.5347   -0.0003 C   0  0  0  0  0  0  0  0  0  0  0  0
    1.1202   -2.5399    0.0002 C   0  0  0  0  0  0  0  0  0  0  0  0
   -1.5936    2.1236   -0.0003 H   0  0  0  0  0  0  0  0  0  0  0  0
   -1.5692   -2.1576    0.0001 H   0  0  0  0  0  0  0  0  0  0  0  0
    1.7318    2.6127    0.9053 H   0  0  0  0  0  0  0  0  0  0  0  0
    1.7319    2.6125   -0.9058 H   0  0  0  0  0  0  0  0  0  0  0  0
    0.3885    3.3927   -0.0004 H   0  0  0  0  0  0  0  0  0  0  0  0
    1.7587   -2.6112   -0.9053 H   0  0  0  0  0  0  0  0  0  0  0  0
    1.7587   -2.6111    0.9058 H   0  0  0  0  0  0  0  0  0  0  0  0
    0.4236   -3.4052    0.0003 H   0  0  0  0  0  0  0  0  0  0  0  0
   -3.5986   -0.8201   -0.0001 H   0  0  0  0  0  0  0  0  0  0  0  0
  1  5  1  0  0  0  0
  2  8  1  0  0  0  0
  2 19  1  0  0  0  0
  3  5  2  0  0  0  0
  3  6  1  0  0  0  0
  3  9  1  0  0  0  0
  4  5  1  0  0  0  0
  4  7  2  0  0  0  0
  4 10  1  0  0  0  0
  6  8  2  0  0  0  0
  6 11  1  0  0  0  0
  7  8  1  0  0  0  0
  7 12  1  0  0  0  0
  9 13  1  0  0  0  0
  9 14  1  0  0  0  0
  9 15  1  0  0  0  0
 10 16  1  0  0  0  0
 10 17  1  0  0  0  0
 10 18  1  0  0  0  0
M  END
