
 OpenBabel06172410023D

 35 37  0  0  1  0  0  0  0  0999 V2000
    0.4281    0.7068   -0.2597 O   0  0  0  0  0  0  0  0  0  0  0  0
   -0.6410   -2.8706   -0.2833 O   0  0  0  0  0  0  0  0  0  0  0  0
    4.3784   -1.9952    0.2822 O   0  0  0  0  0  0  0  0  0  0  0  0
    4.6770    2.7435    0.2438 O   0  0  0  0  0  0  0  0  0  0  0  0
   -4.0433    1.6296    1.8606 O   0  0  0  0  0  0  0  0  0  0  0  0
   -5.8610    0.6711    0.0521 O   0  0  0  0  0  0  0  0  0  0  0  0
    0.0856   -1.7139    0.1504 C   0  0  2  0  0  0  0  0  0  0  0  0
   -0.3188   -0.4597   -0.6491 C   0  0  1  0  0  0  0  0  0  0  0  0
    1.5747   -1.9774   -0.0577 C   0  0  0  0  0  0  0  0  0  0  0  0
    2.3849   -0.7202    0.0269 C   0  0  0  0  0  0  0  0  0  0  0  0
    1.7729    0.5304   -0.0935 C   0  0  0  0  0  0  0  0  0  0  0  0
   -1.7971   -0.1354   -0.4588 C   0  0  0  0  0  0  0  0  0  0  0  0
    3.7748   -0.7717    0.1910 C   0  0  0  0  0  0  0  0  0  0  0  0
    2.5266    1.7035   -0.0104 C   0  0  0  0  0  0  0  0  0  0  0  0
   -2.2470    0.6208    0.6381 C   0  0  0  0  0  0  0  0  0  0  0  0
   -2.7440   -0.6254   -1.3742 C   0  0  0  0  0  0  0  0  0  0  0  0
    4.5378    0.3916    0.2636 C   0  0  0  0  0  0  0  0  0  0  0  0
    3.9033    1.6230    0.1653 C   0  0  0  0  0  0  0  0  0  0  0  0
   -3.6068    0.8884    0.7978 C   0  0  0  0  0  0  0  0  0  0  0  0
   -4.1058   -0.3579   -1.2094 C   0  0  0  0  0  0  0  0  0  0  0  0
   -4.5327    0.4007   -0.1228 C   0  0  0  0  0  0  0  0  0  0  0  0
   -0.1179   -1.5575    1.2179 H   0  0  0  0  0  0  0  0  0  0  0  0
   -0.1448   -0.6197   -1.7227 H   0  0  0  0  0  0  0  0  0  0  0  0
    1.7399   -2.4406   -1.0394 H   0  0  0  0  0  0  0  0  0  0  0  0
    1.9059   -2.7069    0.6919 H   0  0  0  0  0  0  0  0  0  0  0  0
    2.0244    2.6624   -0.0922 H   0  0  0  0  0  0  0  0  0  0  0  0
   -1.5275    0.9979    1.3594 H   0  0  0  0  0  0  0  0  0  0  0  0
   -0.4303   -3.5919    0.3354 H   0  0  0  0  0  0  0  0  0  0  0  0
   -2.4225   -1.2338   -2.2178 H   0  0  0  0  0  0  0  0  0  0  0  0
    5.6142    0.3589    0.3957 H   0  0  0  0  0  0  0  0  0  0  0  0
   -4.8129   -0.7524   -1.9320 H   0  0  0  0  0  0  0  0  0  0  0  0
    5.3373   -1.8626    0.3721 H   0  0  0  0  0  0  0  0  0  0  0  0
    4.1053    3.5237    0.1462 H   0  0  0  0  0  0  0  0  0  0  0  0
   -3.2759    1.9205    2.3756 H   0  0  0  0  0  0  0  0  0  0  0  0
   -6.3624    0.2558   -0.6655 H   0  0  0  0  0  0  0  0  0  0  0  0
  1  8  1  0  0  0  0
  1 11  1  0  0  0  0
  2  7  1  0  0  0  0
  2 28  1  0  0  0  0
  3 13  1  0  0  0  0
  3 32  1  0  0  0  0
  4 18  1  0  0  0  0
  4 33  1  0  0  0  0
  5 19  1  0  0  0  0
  5 34  1  0  0  0  0
  6 21  1  0  0  0  0
  6 35  1  0  0  0  0
  7  8  1  6  0  0  0
  7  9  1  0  0  0  0
  7 22  1  0  0  0  0
  8 12  1  0  0  0  0
  8 23  1  6  0  0  0
  9 10  1  0  0  0  0
  9 24  1  0  0  0  0
  9 25  1  0  0  0  0
 10 11  1  0  0  0  0
 10 13  2  0  0  0  0
 11 14  2  0  0  0  0
 12 15  2  0  0  0  0
 12 16  1  0  0  0  0
 13 17  1  0  0  0  0
 14 18  1  0  0  0  0
 14 26  1  0  0  0  0
 15 19  1  0  0  0  0
 15 27  1  0  0  0  0
 16 20  2  0  0  0  0
 16 29  1  0  0  0  0
 17 18  2  0  0  0  0
 17 30  1  0  0  0  0
 19 21  2  0  0  0  0
 20 21  1  0  0  0  0
 20 31  1  0  0  0  0
M  END
