
 OpenBabel09072118363D

 19 19  0  0  0  0  0  0  0  0999 V2000
    1.5853    0.9072    2.3313 C   0  0  0  0  0  0  0  0  0  0  0  0
    2.8472    0.4945    2.5549 C   0  0  0  0  0  0  0  0  0  0  0  0
    3.9918    1.3915    2.8831 C   0  0  0  0  0  0  0  0  0  0  0  0
    0.4983   -0.0423    2.0101 C   0  0  0  0  0  0  0  0  0  0  0  0
    5.2548    0.8062    3.0898 C   0  0  0  0  0  0  0  0  0  0  0  0
    3.8714    2.7940    2.9961 C   0  0  0  0  0  0  0  0  0  0  0  0
    0.7387   -1.3694    1.9297 O   0  0  0  0  0  0  0  0  0  0  0  0
   -0.6303    0.3827    1.8155 O   0  0  0  0  0  0  0  0  0  0  0  0
    6.3659    1.5956    3.4003 C   0  0  0  0  0  0  0  0  0  0  0  0
    4.9874    3.5779    3.3071 C   0  0  0  0  0  0  0  0  0  0  0  0
    6.2324    2.9803    3.5089 C   0  0  0  0  0  0  0  0  0  0  0  0
    1.3197    1.9552    2.3789 H   0  0  0  0  0  0  0  0  0  0  0  0
    3.0587   -0.5700    2.4943 H   0  0  0  0  0  0  0  0  0  0  0  0
    5.3835   -0.2666    3.0110 H   0  0  0  0  0  0  0  0  0  0  0  0
    2.9307    3.3016    2.8492 H   0  0  0  0  0  0  0  0  0  0  0  0
    0.0342   -1.9989    1.7201 H   0  0  0  0  0  0  0  0  0  0  0  0
    7.3315    1.1323    3.5568 H   0  0  0  0  0  0  0  0  0  0  0  0
    4.8860    4.6523    3.3918 H   0  0  0  0  0  0  0  0  0  0  0  0
    7.0936    3.5903    3.7494 H   0  0  0  0  0  0  0  0  0  0  0  0
  1  2  2  0  0  0  0
  1  4  1  0  0  0  0
  1 12  1  0  0  0  0
  2  3  1  0  0  0  0
  2 13  1  0  0  0  0
  3  6  1  0  0  0  0
  4  7  1  0  0  0  0
  4  8  2  0  0  0  0
  5  3  2  0  0  0  0
  5 14  1  0  0  0  0
  6 10  2  0  0  0  0
  6 15  1  0  0  0  0
  7 16  1  0  0  0  0
  9  5  1  0  0  0  0
  9 17  1  0  0  0  0
 10 11  1  0  0  0  0
 10 18  1  0  0  0  0
 11  9  2  0  0  0  0
 11 19  1  0  0  0  0
M  END
