
 OpenBabel01072116513D

 28 29  0  0  1  0  0  0  0  0999 V2000
    0.1501    0.8175   -0.7106 C   0  0  0  0  0  0  0  0  0  0  0  0
   -1.3152    0.3200   -0.5426 C   0  0  0  0  0  0  0  0  0  0  0  0
    1.0704   -1.1456    0.5908 C   0  0  1  0  0  0  0  0  0  0  0  0
   -0.3464   -2.8312    0.6667 H   0  0  0  0  0  0  0  0  0  0  0  0
   -0.2452   -2.0664   -0.9509 H   0  0  0  0  0  0  0  0  0  0  0  0
    0.9586    0.4220    0.5277 C   0  0  1  0  0  0  0  0  0  0  0  0
    0.6220    0.3342   -1.5923 H   0  0  0  0  0  0  0  0  0  0  0  0
    0.1360    1.9128   -0.8975 H   0  0  0  0  0  0  0  0  0  0  0  0
   -1.4502   -0.9430    0.3562 C   0  0  0  0  0  0  0  0  0  0  0  0
   -1.9474    1.1023   -0.0693 H   0  0  0  0  0  0  0  0  0  0  0  0
   -1.7136    0.1393   -1.5644 H   0  0  0  0  0  0  0  0  0  0  0  0
   -0.2503   -1.8562    0.1428 C   0  0  0  0  0  0  0  0  0  0  0  0
   -1.4522   -0.6576    1.4314 H   0  0  0  0  0  0  0  0  0  0  0  0
   -2.4169   -1.4471    0.1431 H   0  0  0  0  0  0  0  0  0  0  0  0
    2.3377    1.1003    0.6603 C   0  0  0  0  0  0  0  0  0  0  0  0
    2.2190   -1.6970   -0.2933 C   0  0  0  0  0  0  0  0  0  0  0  0
    4.3208   -1.3880   -0.7147 H   0  0  0  0  0  0  0  0  0  0  0  0
    3.8692   -1.1446    1.0125 H   0  0  0  0  0  0  0  0  0  0  0  0
    0.3632    0.8014    1.3896 H   0  0  0  0  0  0  0  0  0  0  0  0
    3.3770    0.5249   -0.3025 C   0  0  0  0  0  0  0  0  0  0  0  0
    2.2371    2.1981    0.5189 H   0  0  0  0  0  0  0  0  0  0  0  0
    2.7116    0.9302    1.6948 H   0  0  0  0  0  0  0  0  0  0  0  0
    3.5422   -0.9760   -0.0372 C   0  0  0  0  0  0  0  0  0  0  0  0
    3.0695    0.7017   -1.3561 H   0  0  0  0  0  0  0  0  0  0  0  0
    4.3500    1.0348   -0.1347 H   0  0  0  0  0  0  0  0  0  0  0  0
    1.2938   -1.3762    1.6565 H   0  0  0  0  0  0  0  0  0  0  0  0
    2.3431   -2.7869   -0.1120 H   0  0  0  0  0  0  0  0  0  0  0  0
    1.9719   -1.5588   -1.3689 H   0  0  0  0  0  0  0  0  0  0  0  0
  1  2  1  0  0  0  0
  1  6  1  0  0  0  0
  1  7  1  0  0  0  0
  1  8  1  0  0  0  0
  2  9  1  0  0  0  0
  2 10  1  0  0  0  0
  2 11  1  0  0  0  0
  3  6  1  0  0  0  0
  3 16  1  0  0  0  0
  3 26  1  1  0  0  0
  6 15  1  0  0  0  0
  6 19  1  1  0  0  0
  9 12  1  0  0  0  0
  9 13  1  0  0  0  0
  9 14  1  0  0  0  0
 12  4  1  0  0  0  0
 12  5  1  0  0  0  0
 12  3  1  0  0  0  0
 15 20  1  0  0  0  0
 15 21  1  0  0  0  0
 15 22  1  0  0  0  0
 16 27  1  0  0  0  0
 16 28  1  0  0  0  0
 20 23  1  0  0  0  0
 20 24  1  0  0  0  0
 20 25  1  0  0  0  0
 23 17  1  0  0  0  0
 23 18  1  0  0  0  0
 23 16  1  0  0  0  0
M  END
