
 OpenBabel09152115273D

 27 28  0  0  0  0  0  0  0  0999 V2000
    2.9164    0.0488    3.5805 Cl  0  0  0  0  0  0  0  0  0  0  0  0
    5.2459    1.3990    1.8890 Cl  0  0  0  0  0  0  0  0  0  0  0  0
   -3.4244   -1.4070    3.6230 O   0  0  0  0  0  0  0  0  0  0  0  0
   -1.5501   -0.2384    3.5256 O   0  0  0  0  0  0  0  0  0  0  0  0
    0.5877   -1.0084    1.8917 N   0  0  0  0  0  0  0  0  0  0  0  0
   -0.3930   -1.9311    1.3912 C   0  0  0  0  0  0  0  0  0  0  0  0
    1.6626   -0.4160    1.1441 C   0  0  0  0  0  0  0  0  0  0  0  0
   -1.6944   -2.0455    1.9838 C   0  0  0  0  0  0  0  0  0  0  0  0
   -0.0576   -2.8060    0.3325 C   0  0  0  0  0  0  0  0  0  0  0  0
    2.7862    0.1274    1.8202 C   0  0  0  0  0  0  0  0  0  0  0  0
    1.6116   -0.3080   -0.2633 C   0  0  0  0  0  0  0  0  0  0  0  0
   -2.5875   -3.0130    1.4741 C   0  0  0  0  0  0  0  0  0  0  0  0
   -0.9647   -3.7473   -0.1466 C   0  0  0  0  0  0  0  0  0  0  0  0
   -2.2267   -3.8494    0.4213 C   0  0  0  0  0  0  0  0  0  0  0  0
    3.8298    0.7270    1.0884 C   0  0  0  0  0  0  0  0  0  0  0  0
    2.6508    0.2908   -0.9752 C   0  0  0  0  0  0  0  0  0  0  0  0
    3.7572    0.8019   -0.3034 C   0  0  0  0  0  0  0  0  0  0  0  0
   -2.1999   -1.1782    3.0977 C   0  0  0  0  0  0  0  0  0  0  0  0
    0.5499   -0.7893    2.8918 H   0  0  0  0  0  0  0  0  0  0  0  0
    0.9242   -2.7927   -0.1179 H   0  0  0  0  0  0  0  0  0  0  0  0
    0.7619   -0.6622   -0.8278 H   0  0  0  0  0  0  0  0  0  0  0  0
   -3.5824   -3.1267    1.8858 H   0  0  0  0  0  0  0  0  0  0  0  0
   -0.6823   -4.4081   -0.9562 H   0  0  0  0  0  0  0  0  0  0  0  0
   -2.9291   -4.5837    0.0479 H   0  0  0  0  0  0  0  0  0  0  0  0
    2.5939    0.3650   -2.0537 H   0  0  0  0  0  0  0  0  0  0  0  0
    4.5571    1.2652   -0.8671 H   0  0  0  0  0  0  0  0  0  0  0  0
   -3.7839   -0.8559    4.3329 H   0  0  0  0  0  0  0  0  0  0  0  0
  1 10  1  0  0  0  0
  2 15  1  0  0  0  0
  3 18  1  0  0  0  0
  3 27  1  0  0  0  0
  4 18  2  0  0  0  0
  5  6  1  0  0  0  0
  5  7  1  0  0  0  0
  5 19  1  0  0  0  0
  6  8  1  0  0  0  0
  6  9  2  0  0  0  0
  7 10  2  0  0  0  0
  7 11  1  0  0  0  0
  8 12  2  0  0  0  0
  8 18  1  0  0  0  0
  9 13  1  0  0  0  0
  9 20  1  0  0  0  0
 10 15  1  0  0  0  0
 11 16  2  0  0  0  0
 11 21  1  0  0  0  0
 12 14  1  0  0  0  0
 12 22  1  0  0  0  0
 13 14  2  0  0  0  0
 13 23  1  0  0  0  0
 14 24  1  0  0  0  0
 15 17  2  0  0  0  0
 16 17  1  0  0  0  0
 16 25  1  0  0  0  0
 17 26  1  0  0  0  0
M  END
