
 OpenBabel11132207233D

 54 57  0  0  1  0  0  0  0  0999 V2000
   -3.1262    0.4137   -1.8365 O   0  0  0  0  0  0  0  0  0  0  0  0
    0.4241   -2.3583    0.9037 O   0  0  0  0  0  0  0  0  0  0  0  0
   -5.4129    0.2711    0.5962 O   0  0  0  0  0  0  0  0  0  0  0  0
   -5.8959   -1.8690   -1.1582 O   0  0  0  0  0  0  0  0  0  0  0  0
    6.1242   -0.4504   -1.6158 O   0  0  0  0  0  0  0  0  0  0  0  0
   -1.0185    1.2105   -0.1835 C   0  0  2  0  0  0  0  0  0  0  0  0
   -1.9374    0.0404    0.2458 C   0  0  1  0  0  0  0  0  0  0  0  0
    0.4191    1.1207    0.3905 C   0  0  1  0  0  0  0  0  0  0  0  0
    1.0650   -0.2354   -0.0609 C   0  0  1  0  0  0  0  0  0  0  0  0
   -3.2709    0.5000   -0.4340 C   0  0  1  0  0  0  0  0  0  0  0  0
    2.5463   -0.4030    0.4662 C   0  0  2  0  0  0  0  0  0  0  0  0
   -1.8424    2.4593    0.1342 C   0  0  0  0  0  0  0  0  0  0  0  0
   -1.3142   -1.2780   -0.2790 C   0  0  0  0  0  0  0  0  0  0  0  0
   -3.3121    2.0081   -0.0360 C   0  0  0  0  0  0  0  0  0  0  0  0
    1.2834    2.3017   -0.1051 C   0  0  0  0  0  0  0  0  0  0  0  0
    0.1008   -1.3854    0.2413 C   0  0  0  0  0  0  0  0  0  0  0  0
   -2.1080   -0.0807    1.7985 C   0  0  0  0  0  0  0  0  0  0  0  0
    3.3170    0.8841    0.0983 C   0  0  0  0  0  0  0  0  0  0  0  0
    2.6947    2.2124    0.4703 C   0  0  0  0  0  0  0  0  0  0  0  0
    3.1726   -1.6581   -0.2464 C   0  0  0  0  0  0  0  0  0  0  0  0
    2.6142   -0.5638    2.0097 C   0  0  0  0  0  0  0  0  0  0  0  0
   -4.5211   -0.2814   -0.0317 C   0  0  0  0  0  0  0  0  0  0  0  0
    4.6932   -1.6625   -0.1688 C   0  0  0  0  0  0  0  0  0  0  0  0
    4.5079    0.8617   -0.5424 C   0  0  0  0  0  0  0  0  0  0  0  0
    5.1819   -0.4144   -0.8403 C   0  0  0  0  0  0  0  0  0  0  0  0
   -4.7135   -1.7229   -0.4202 C   0  0  0  0  0  0  0  0  0  0  0  0
   -0.9235    1.1777   -1.2955 H   0  0  0  0  0  0  0  0  0  0  0  0
    0.3559    1.1697    1.4966 H   0  0  0  0  0  0  0  0  0  0  0  0
    1.1250   -0.1863   -1.1729 H   0  0  0  0  0  0  0  0  0  0  0  0
   -1.5545    3.3300   -0.4925 H   0  0  0  0  0  0  0  0  0  0  0  0
   -1.6906    2.7346    1.2017 H   0  0  0  0  0  0  0  0  0  0  0  0
   -1.2604   -1.2638   -1.3888 H   0  0  0  0  0  0  0  0  0  0  0  0
   -1.9080   -2.1619    0.0330 H   0  0  0  0  0  0  0  0  0  0  0  0
   -3.7863    2.1287    0.9627 H   0  0  0  0  0  0  0  0  0  0  0  0
   -3.9074    2.6337   -0.7350 H   0  0  0  0  0  0  0  0  0  0  0  0
    0.8342    3.2669    0.2125 H   0  0  0  0  0  0  0  0  0  0  0  0
    1.3385    2.2917   -1.2166 H   0  0  0  0  0  0  0  0  0  0  0  0
   -1.1531   -0.3221    2.3073 H   0  0  0  0  0  0  0  0  0  0  0  0
   -2.4979    0.8384    2.2750 H   0  0  0  0  0  0  0  0  0  0  0  0
   -2.8151   -0.9026    2.0380 H   0  0  0  0  0  0  0  0  0  0  0  0
    2.6372    2.2941    1.5757 H   0  0  0  0  0  0  0  0  0  0  0  0
    3.3004    3.0721    0.1089 H   0  0  0  0  0  0  0  0  0  0  0  0
    2.9202   -1.6439   -1.3313 H   0  0  0  0  0  0  0  0  0  0  0  0
    2.7670   -2.6017    0.1729 H   0  0  0  0  0  0  0  0  0  0  0  0
    3.6661   -0.6078    2.3579 H   0  0  0  0  0  0  0  0  0  0  0  0
    2.1387    0.2815    2.5429 H   0  0  0  0  0  0  0  0  0  0  0  0
    2.1200   -1.4913    2.3553 H   0  0  0  0  0  0  0  0  0  0  0  0
   -3.9275    0.8271   -2.2541 H   0  0  0  0  0  0  0  0  0  0  0  0
    5.1327   -2.5641   -0.6482 H   0  0  0  0  0  0  0  0  0  0  0  0
    5.0036   -1.6583    0.8954 H   0  0  0  0  0  0  0  0  0  0  0  0
    4.9949    1.7870   -0.8377 H   0  0  0  0  0  0  0  0  0  0  0  0
   -4.7927   -2.3385    0.5001 H   0  0  0  0  0  0  0  0  0  0  0  0
   -3.8621   -2.1158   -1.0131 H   0  0  0  0  0  0  0  0  0  0  0  0
   -5.7102   -1.5140   -2.0670 H   0  0  0  0  0  0  0  0  0  0  0  0
  1 48  1  0  0  0  0
  2 16  2  0  0  0  0
  3 22  2  0  0  0  0
  4 26  1  0  0  0  0
  4 54  1  0  0  0  0
  5 25  2  0  0  0  0
  6  7  1  1  0  0  0
  6 12  1  0  0  0  0
  6 27  1  0  0  0  0
  7 10  1  6  0  0  0
  7 13  1  0  0  0  0
  7 17  1  0  0  0  0
  8  6  1  6  0  0  0
  8 15  1  0  0  0  0
  8 28  1  0  0  0  0
  9  8  1  1  0  0  0
  9 16  1  0  0  0  0
  9 29  1  0  0  0  0
 10  1  1  6  0  0  0
 10 14  1  0  0  0  0
 10 22  1  0  0  0  0
 11  9  1  6  0  0  0
 11 18  1  0  0  0  0
 11 20  1  0  0  0  0
 11 21  1  0  0  0  0
 12 14  1  0  0  0  0
 12 30  1  0  0  0  0
 12 31  1  0  0  0  0
 13 16  1  0  0  0  0
 13 32  1  0  0  0  0
 13 33  1  0  0  0  0
 14 34  1  0  0  0  0
 14 35  1  0  0  0  0
 15 19  1  0  0  0  0
 15 36  1  0  0  0  0
 15 37  1  0  0  0  0
 17 38  1  0  0  0  0
 17 39  1  0  0  0  0
 17 40  1  0  0  0  0
 18 19  1  0  0  0  0
 18 24  2  0  0  0  0
 19 41  1  0  0  0  0
 19 42  1  0  0  0  0
 20 23  1  0  0  0  0
 20 43  1  0  0  0  0
 20 44  1  0  0  0  0
 21 45  1  0  0  0  0
 21 46  1  0  0  0  0
 21 47  1  0  0  0  0
 22 26  1  0  0  0  0
 23 25  1  0  0  0  0
 23 49  1  0  0  0  0
 23 50  1  0  0  0  0
 24 25  1  0  0  0  0
 24 51  1  0  0  0  0
 26 52  1  0  0  0  0
 26 53  1  0  0  0  0
M  END
