
 OpenBabel10222214343D

 55 58  0  0  1  0  0  0  0  0999 V2000
   -3.0607    0.1799   -1.8419 O   0  0  0  0  0  0  0  0  0  0  0  0
   -5.4087    0.2608    0.5346 O   0  0  0  0  0  0  0  0  0  0  0  0
   -5.8675   -2.0172   -1.0422 O   0  0  0  0  0  0  0  0  0  0  0  0
    6.1137   -0.6272   -1.6053 O   0  0  0  0  0  0  0  0  0  0  0  0
   -1.9246   -0.0203    0.2929 C   0  0  1  0  0  0  0  0  0  0  0  0
   -0.9953    1.1084   -0.2025 C   0  0  2  0  0  0  0  0  0  0  0  0
    0.4323    1.0407    0.3886 C   0  0  1  0  0  0  0  0  0  0  0  0
    1.0680   -0.3419    0.0047 C   0  0  1  0  0  0  0  0  0  0  0  0
   -3.2393    0.3879   -0.4558 C   0  0  1  0  0  0  0  0  0  0  0  0
   -1.2875   -1.3734   -0.1256 C   0  0  0  0  0  0  0  0  0  0  0  0
    2.5594   -0.4840    0.5122 C   0  0  2  0  0  0  0  0  0  0  0  0
    0.1447   -1.5240    0.4346 C   0  0  0  0  0  0  0  0  0  0  0  0
   -1.8159    2.3770    0.0214 C   0  0  0  0  0  0  0  0  0  0  0  0
   -3.2805    1.9285   -0.1936 C   0  0  0  0  0  0  0  0  0  0  0  0
    1.3005    2.1920   -0.1675 C   0  0  0  0  0  0  0  0  0  0  0  0
   -2.1567   -0.0142    1.8436 C   0  0  0  0  0  0  0  0  0  0  0  0
    3.3284    0.7838    0.0830 C   0  0  0  0  0  0  0  0  0  0  0  0
    2.7126    2.1262    0.4054 C   0  0  0  0  0  0  0  0  0  0  0  0
    3.1788   -1.7707   -0.1476 C   0  0  0  0  0  0  0  0  0  0  0  0
    2.6418   -0.5906    2.0578 C   0  0  0  0  0  0  0  0  0  0  0  0
   -4.5063   -0.3489   -0.0210 C   0  0  0  0  0  0  0  0  0  0  0  0
    4.7004   -1.7724   -0.0882 C   0  0  0  0  0  0  0  0  0  0  0  0
    4.5122    0.7324   -0.5692 C   0  0  0  0  0  0  0  0  0  0  0  0
    5.1810   -0.5562   -0.8206 C   0  0  0  0  0  0  0  0  0  0  0  0
   -4.7019   -1.8168   -0.2903 C   0  0  0  0  0  0  0  0  0  0  0  0
   -0.8846    1.0069   -1.3090 H   0  0  0  0  0  0  0  0  0  0  0  0
    0.3716    1.1478    1.4907 H   0  0  0  0  0  0  0  0  0  0  0  0
    1.1035   -0.3576   -1.1098 H   0  0  0  0  0  0  0  0  0  0  0  0
   -1.2165   -1.4282   -1.2339 H   0  0  0  0  0  0  0  0  0  0  0  0
   -1.8994   -2.2292    0.2239 H   0  0  0  0  0  0  0  0  0  0  0  0
    0.1012   -1.5991    1.5362 H   0  0  0  0  0  0  0  0  0  0  0  0
    0.5470   -2.4871    0.0605 H   0  0  0  0  0  0  0  0  0  0  0  0
   -1.4990    3.2299   -0.6156 H   0  0  0  0  0  0  0  0  0  0  0  0
   -1.7018    2.6854    1.0843 H   0  0  0  0  0  0  0  0  0  0  0  0
   -3.8145    2.1624    0.7535 H   0  0  0  0  0  0  0  0  0  0  0  0
   -3.8127    2.4822   -0.9966 H   0  0  0  0  0  0  0  0  0  0  0  0
    0.8567    3.1734    0.1052 H   0  0  0  0  0  0  0  0  0  0  0  0
    1.3524    2.1289   -1.2775 H   0  0  0  0  0  0  0  0  0  0  0  0
   -2.8449   -0.8391    2.1243 H   0  0  0  0  0  0  0  0  0  0  0  0
   -1.2277   -0.1518    2.4256 H   0  0  0  0  0  0  0  0  0  0  0  0
   -2.6089    0.9232    2.2182 H   0  0  0  0  0  0  0  0  0  0  0  0
    2.6616    2.2532    1.5071 H   0  0  0  0  0  0  0  0  0  0  0  0
    3.3174    2.9688    0.0043 H   0  0  0  0  0  0  0  0  0  0  0  0
    2.9125   -1.8082   -1.2286 H   0  0  0  0  0  0  0  0  0  0  0  0
    2.7790   -2.6915    0.3272 H   0  0  0  0  0  0  0  0  0  0  0  0
    2.1552   -1.5166    2.4249 H   0  0  0  0  0  0  0  0  0  0  0  0
    3.6960   -0.6174    2.4006 H   0  0  0  0  0  0  0  0  0  0  0  0
    2.1619    0.2687    2.5649 H   0  0  0  0  0  0  0  0  0  0  0  0
   -3.8542    0.5477   -2.3137 H   0  0  0  0  0  0  0  0  0  0  0  0
    5.1341   -2.6952   -0.5310 H   0  0  0  0  0  0  0  0  0  0  0  0
    5.0238   -1.7196    0.9707 H   0  0  0  0  0  0  0  0  0  0  0  0
    4.9973    1.6435   -0.9086 H   0  0  0  0  0  0  0  0  0  0  0  0
   -4.8088   -2.3513    0.6767 H   0  0  0  0  0  0  0  0  0  0  0  0
   -3.8404   -2.2646   -0.8266 H   0  0  0  0  0  0  0  0  0  0  0  0
   -5.6571   -1.7418   -1.9730 H   0  0  0  0  0  0  0  0  0  0  0  0
  1  9  1  0  0  0  0
  1 49  1  0  0  0  0
  2 21  2  0  0  0  0
  3 25  1  0  0  0  0
  3 55  1  0  0  0  0
  4 24  2  0  0  0  0
  5  6  1  6  0  0  0
  5 10  1  0  0  0  0
  5 16  1  0  0  0  0
  6  7  1  1  0  0  0
  6 13  1  0  0  0  0
  6 26  1  0  0  0  0
  7  8  1  6  0  0  0
  7 15  1  0  0  0  0
  7 27  1  0  0  0  0
  8 11  1  1  0  0  0
  8 12  1  0  0  0  0
  8 28  1  0  0  0  0
  9  5  1  1  0  0  0
  9 14  1  0  0  0  0
  9 21  1  0  0  0  0
 10 12  1  0  0  0  0
 10 29  1  0  0  0  0
 10 30  1  0  0  0  0
 11 17  1  0  0  0  0
 11 19  1  0  0  0  0
 11 20  1  1  0  0  0
 12 31  1  0  0  0  0
 12 32  1  0  0  0  0
 13 14  1  0  0  0  0
 13 33  1  0  0  0  0
 13 34  1  0  0  0  0
 14 35  1  0  0  0  0
 14 36  1  0  0  0  0
 15 18  1  0  0  0  0
 15 37  1  0  0  0  0
 15 38  1  0  0  0  0
 16 39  1  0  0  0  0
 16 40  1  0  0  0  0
 16 41  1  0  0  0  0
 17 18  1  0  0  0  0
 17 23  2  0  0  0  0
 18 42  1  0  0  0  0
 18 43  1  0  0  0  0
 19 22  1  0  0  0  0
 19 44  1  0  0  0  0
 19 45  1  0  0  0  0
 20 46  1  0  0  0  0
 20 47  1  0  0  0  0
 20 48  1  0  0  0  0
 21 25  1  0  0  0  0
 22 24  1  0  0  0  0
 22 50  1  0  0  0  0
 22 51  1  0  0  0  0
 23 24  1  0  0  0  0
 23 52  1  0  0  0  0
 25 53  1  0  0  0  0
 25 54  1  0  0  0  0
M  END
