
 OpenBabel05032319383D

 20 20  0  0  0  0  0  0  0  0999 V2000
   -0.5990    1.3371   -0.5764 C   0  0  0  0  0  0  0  0  0  0  0  0
    0.9358    1.3693   -0.6135 C   0  0  0  0  0  0  0  0  0  0  0  0
   -1.0987    0.0000    0.0000 C   0  0  0  0  0  0  0  0  0  0  0  0
    1.4740    0.2044   -1.4550 C   0  0  0  0  0  0  0  0  0  0  0  0
    0.9839   -1.1340   -0.8864 C   0  0  0  0  0  0  0  0  0  0  0  0
   -0.5507   -1.1697   -0.8496 C   0  0  0  0  0  0  0  0  0  0  0  0
   -2.5455    0.0000    0.0000 N   0  0  0  0  0  0  0  0  0  0  0  0
   -0.9934    1.4715   -1.6085 H   0  0  0  0  0  0  0  0  0  0  0  0
   -0.9691    2.1786    0.0487 H   0  0  0  0  0  0  0  0  0  0  0  0
    1.3333    1.2930    0.4227 H   0  0  0  0  0  0  0  0  0  0  0  0
    1.2794    2.3330   -1.0469 H   0  0  0  0  0  0  0  0  0  0  0  0
   -0.7180   -0.0876    1.0469 H   0  0  0  0  0  0  0  0  0  0  0  0
    2.5849    0.2260   -1.4573 H   0  0  0  0  0  0  0  0  0  0  0  0
    1.1219    0.3119   -2.5048 H   0  0  0  0  0  0  0  0  0  0  0  0
    1.3818   -1.2668    0.1440 H   0  0  0  0  0  0  0  0  0  0  0  0
    1.3627   -1.9680   -1.5152 H   0  0  0  0  0  0  0  0  0  0  0  0
   -0.9450   -1.0944   -1.8876 H   0  0  0  0  0  0  0  0  0  0  0  0
   -0.8812   -2.1412   -0.4226 H   0  0  0  0  0  0  0  0  0  0  0  0
   -2.6575   -0.8837    0.5516 H   0  0  0  0  0  0  0  0  0  0  0  0
   -3.5655    0.0000    0.0000 H   0  0  0  0  0  0  0  0  0  0  0  0
  1  3  1  0  0  0  0
  1  8  1  0  0  0  0
  1  9  1  0  0  0  0
  2  1  1  0  0  0  0
  2 10  1  0  0  0  0
  2 11  1  0  0  0  0
  3  6  1  0  0  0  0
  3  7  1  0  0  0  0
  3 12  1  0  0  0  0
  4  2  1  0  0  0  0
  4 13  1  0  0  0  0
  4 14  1  0  0  0  0
  5  4  1  0  0  0  0
  5 15  1  0  0  0  0
  5 16  1  0  0  0  0
  6  5  1  0  0  0  0
  6 17  1  0  0  0  0
  6 18  1  0  0  0  0
  7 19  1  0  0  0  0
  7 20  1  0  0  0  0
M  END
