
 OpenBabel11132207123D

 33 34  0  0  0  0  0  0  0  0999 V2000
    0.4395    0.4512    2.3528 O   0  0  0  0  0  0  0  0  0  0  0  0
    0.5607    0.4814   -2.3497 O   0  0  0  0  0  0  0  0  0  0  0  0
    3.5172   -1.8172    0.0646 O   0  0  0  0  0  0  0  0  0  0  0  0
    1.9825   -0.6840    1.2167 N   0  0  0  0  0  0  0  0  0  0  0  0
    2.0443   -0.6679   -1.1504 N   0  0  0  0  0  0  0  0  0  0  0  0
    0.2495    0.6710   -0.0037 C   0  0  0  0  0  0  0  0  0  0  0  0
   -1.2025    0.1413   -0.0409 C   0  0  0  0  0  0  0  0  0  0  0  0
   -1.3973   -1.3768   -0.0340 C   0  0  0  0  0  0  0  0  0  0  0  0
   -2.8175   -1.8192   -0.4161 C   0  0  0  0  0  0  0  0  0  0  0  0
    0.3533    2.2312    0.0082 C   0  0  0  0  0  0  0  0  0  0  0  0
   -3.8227   -1.0077    0.3776 C   0  0  0  0  0  0  0  0  0  0  0  0
   -3.7145    0.4649   -0.0347 C   0  0  0  0  0  0  0  0  0  0  0  0
   -2.2880    0.9630   -0.0711 C   0  0  0  0  0  0  0  0  0  0  0  0
    0.9010    0.1358    1.2644 C   0  0  0  0  0  0  0  0  0  0  0  0
    0.9661    0.1524   -1.2432 C   0  0  0  0  0  0  0  0  0  0  0  0
    1.7924    2.7634    0.0544 C   0  0  0  0  0  0  0  0  0  0  0  0
    2.5442   -1.0777    0.0442 C   0  0  0  0  0  0  0  0  0  0  0  0
   -0.7154   -1.8664   -0.7609 H   0  0  0  0  0  0  0  0  0  0  0  0
   -1.1360   -1.7466    0.9808 H   0  0  0  0  0  0  0  0  0  0  0  0
   -2.9979   -1.6456   -1.5007 H   0  0  0  0  0  0  0  0  0  0  0  0
   -2.9280   -2.9063   -0.2141 H   0  0  0  0  0  0  0  0  0  0  0  0
   -0.1809    2.6358    0.8962 H   0  0  0  0  0  0  0  0  0  0  0  0
   -0.1246    2.6471   -0.9062 H   0  0  0  0  0  0  0  0  0  0  0  0
   -3.5932   -1.1239    1.4605 H   0  0  0  0  0  0  0  0  0  0  0  0
   -4.8610   -1.3618    0.2012 H   0  0  0  0  0  0  0  0  0  0  0  0
   -4.3040    1.0556    0.6987 H   0  0  0  0  0  0  0  0  0  0  0  0
   -4.1492    0.6310   -1.0438 H   0  0  0  0  0  0  0  0  0  0  0  0
   -2.1831    2.0384   -0.1254 H   0  0  0  0  0  0  0  0  0  0  0  0
    2.3130    2.4211    0.9730 H   0  0  0  0  0  0  0  0  0  0  0  0
    2.3673    2.4304   -0.8348 H   0  0  0  0  0  0  0  0  0  0  0  0
    1.7744    3.8736    0.0597 H   0  0  0  0  0  0  0  0  0  0  0  0
    2.3917   -1.0207    2.1028 H   0  0  0  0  0  0  0  0  0  0  0  0
    2.4990   -0.9929   -2.0185 H   0  0  0  0  0  0  0  0  0  0  0  0
  1 14  2  0  0  0  0
  2 15  2  0  0  0  0
  3 17  2  0  0  0  0
  4 14  1  0  0  0  0
  4 17  1  0  0  0  0
  4 32  1  0  0  0  0
  5 15  1  0  0  0  0
  5 17  1  0  0  0  0
  5 33  1  0  0  0  0
  6  7  1  0  0  0  0
  6 10  1  0  0  0  0
  6 14  1  0  0  0  0
  6 15  1  0  0  0  0
  7  8  1  0  0  0  0
  7 13  2  0  0  0  0
  8  9  1  0  0  0  0
  8 18  1  0  0  0  0
  8 19  1  0  0  0  0
  9 11  1  0  0  0  0
  9 20  1  0  0  0  0
  9 21  1  0  0  0  0
 10 16  1  0  0  0  0
 10 22  1  0  0  0  0
 10 23  1  0  0  0  0
 11 12  1  0  0  0  0
 11 24  1  0  0  0  0
 11 25  1  0  0  0  0
 12 13  1  0  0  0  0
 12 26  1  0  0  0  0
 12 27  1  0  0  0  0
 13 28  1  0  0  0  0
 16 29  1  0  0  0  0
 16 30  1  0  0  0  0
 16 31  1  0  0  0  0
M  END
