
 OpenBabel04082415233D

 13 12  0  0  1  0  0  0  0  0999 V2000
    1.6863   -0.2427   -1.2848 O   0  0  0  0  0  0  0  0  0  0  0  0
    1.3680    1.8765   -0.6702 O   0  0  0  0  0  0  0  0  0  0  0  0
   -0.8104    2.2252   -2.3896 N   0  0  0  0  0  0  0  0  0  0  0  0
   -0.1260    0.9123   -2.3729 C   0  0  2  0  0  0  0  0  0  0  0  0
   -1.1397   -0.1754   -2.0452 C   0  0  0  0  0  0  0  0  0  0  0  0
    1.0175    0.9250   -1.3529 C   0  0  0  0  0  0  0  0  0  0  0  0
    0.3091    0.7439   -3.3638 H   0  0  0  0  0  0  0  0  0  0  0  0
   -1.9742   -0.1647   -2.7549 H   0  0  0  0  0  0  0  0  0  0  0  0
   -0.6782   -1.1677   -2.0929 H   0  0  0  0  0  0  0  0  0  0  0  0
   -1.5470   -0.0534   -1.0349 H   0  0  0  0  0  0  0  0  0  0  0  0
   -1.1702    2.4125   -1.4513 H   0  0  0  0  0  0  0  0  0  0  0  0
   -0.1005    2.9481   -2.5305 H   0  0  0  0  0  0  0  0  0  0  0  0
    2.3898   -0.0766   -0.6225 H   0  0  0  0  0  0  0  0  0  0  0  0
  1  6  1  0  0  0  0
  1 13  1  0  0  0  0
  2  6  2  0  0  0  0
  3  4  1  0  0  0  0
  3 11  1  0  0  0  0
  3 12  1  0  0  0  0
  4  5  1  0  0  0  0
  4  6  1  0  0  0  0
  4  7  1  6  0  0  0
  5  8  1  0  0  0  0
  5  9  1  0  0  0  0
  5 10  1  0  0  0  0
M  END
