
 OpenBabel06072416213D

 17 17  0  0  1  0  0  0  0  0999 V2000
   -2.1816    1.0825    0.0086 O   0  0  0  0  0  0  0  0  0  0  0  0
   -2.1513   -1.1310   -0.1918 O   0  0  0  0  0  0  0  0  0  0  0  0
    0.7371   -1.0900   -0.1869 N   0  0  0  0  0  0  0  0  0  0  0  0
   -0.0511    0.1099   -0.5338 C   0  0  2  0  0  0  0  0  0  0  0  0
    0.6461    1.2175    0.2498 C   0  0  0  0  0  0  0  0  0  0  0  0
    2.0483    0.6873    0.5377 C   0  0  0  0  0  0  0  0  0  0  0  0
    2.1231   -0.6452   -0.1848 C   0  0  0  0  0  0  0  0  0  0  0  0
   -1.5264   -0.0807   -0.1934 C   0  0  0  0  0  0  0  0  0  0  0  0
    0.0205    0.3018   -1.6118 H   0  0  0  0  0  0  0  0  0  0  0  0
    0.1385    1.4565    1.1915 H   0  0  0  0  0  0  0  0  0  0  0  0
    0.6942    2.1381   -0.3426 H   0  0  0  0  0  0  0  0  0  0  0  0
    2.8252    1.3794    0.1982 H   0  0  0  0  0  0  0  0  0  0  0  0
    2.1729    0.5462    1.6182 H   0  0  0  0  0  0  0  0  0  0  0  0
    2.4872   -0.5125   -1.2103 H   0  0  0  0  0  0  0  0  0  0  0  0
    2.7788   -1.3542    0.3282 H   0  0  0  0  0  0  0  0  0  0  0  0
    0.5694   -1.8353   -0.8613 H   0  0  0  0  0  0  0  0  0  0  0  0
   -3.1027    0.7941    0.1807 H   0  0  0  0  0  0  0  0  0  0  0  0
  1  8  1  0  0  0  0
  1 17  1  0  0  0  0
  2  8  2  0  0  0  0
  3  4  1  0  0  0  0
  3  7  1  0  0  0  0
  3 16  1  0  0  0  0
  4  5  1  0  0  0  0
  4  8  1  0  0  0  0
  4  9  1  6  0  0  0
  5  6  1  0  0  0  0
  5 10  1  0  0  0  0
  5 11  1  0  0  0  0
  6  7  1  0  0  0  0
  6 12  1  0  0  0  0
  6 13  1  0  0  0  0
  7 14  1  0  0  0  0
  7 15  1  0  0  0  0
M  END
