  DI-N-BUTYL ACETAL.mol	871-22-7
  NIST    11121313213D 1   1.00000  -544.76070
Copyright by the U.S. Sec. Commerce on behalf of U.S.A. All rights reserved.
 34 33  0  0  0  0  0  0  0  0999 V2000
  103.5747   29.3280    0.3837 O    0  0  0  0  0  0  0  0  0  0  0  0
  102.4323   29.8734   -0.2723 C    0  0  0  0  0  0  0  0  0  0  0  0
  104.6265   28.9167   -0.4770 C    0  0  0  0  0  0  0  0  0  0  0  0
  101.3352   29.7785    0.5812 O    0  0  0  0  0  0  0  0  0  0  0  0
  102.6188   31.3469   -0.6048 C    0  0  0  0  0  0  0  0  0  0  0  0
  105.6824   28.2006    0.3569 C    0  0  0  0  0  0  0  0  0  0  0  0
  100.9195   28.4522    0.9219 C    0  0  0  0  0  0  0  0  0  0  0  0
  106.8814   27.7280   -0.4747 C    0  0  0  0  0  0  0  0  0  0  0  0
  101.3353   28.0736    2.3421 C    0  0  0  0  0  0  0  0  0  0  0  0
  107.9416   27.0079    0.3647 C    0  0  0  0  0  0  0  0  0  0  0  0
  100.8134   26.6941    2.7636 C    0  0  0  0  0  0  0  0  0  0  0  0
  101.2149   26.3161    4.1932 C    0  0  0  0  0  0  0  0  0  0  0  0
  102.2556   29.2807   -1.1919 H    0  0  0  0  0  0  0  0  0  0  0  0
  104.2354   28.2455   -1.2618 H    0  0  0  0  0  0  0  0  0  0  0  0
  105.0765   29.7832   -0.9890 H    0  0  0  0  0  0  0  0  0  0  0  0
  101.7277   31.7394   -1.1039 H    0  0  0  0  0  0  0  0  0  0  0  0
  103.4805   31.4916   -1.2641 H    0  0  0  0  0  0  0  0  0  0  0  0
  102.7831   31.9059    0.3210 H    0  0  0  0  0  0  0  0  0  0  0  0
  106.0203   28.8804    1.1500 H    0  0  0  0  0  0  0  0  0  0  0  0
  105.2116   27.3446    0.8585 H    0  0  0  0  0  0  0  0  0  0  0  0
   99.8253   28.4384    0.8311 H    0  0  0  0  0  0  0  0  0  0  0  0
  101.3227   27.7315    0.1960 H    0  0  0  0  0  0  0  0  0  0  0  0
  106.5322   27.0584   -1.2736 H    0  0  0  0  0  0  0  0  0  0  0  0
  107.3395   28.5908   -0.9789 H    0  0  0  0  0  0  0  0  0  0  0  0
  102.4288   28.1053    2.4050 H    0  0  0  0  0  0  0  0  0  0  0  0
  100.9561   28.8422    3.0290 H    0  0  0  0  0  0  0  0  0  0  0  0
  108.7867   26.6832   -0.2527 H    0  0  0  0  0  0  0  0  0  0  0  0
  108.3350   27.6628    1.1517 H    0  0  0  0  0  0  0  0  0  0  0  0
  107.5236   26.1191    0.8528 H    0  0  0  0  0  0  0  0  0  0  0  0
   99.7174   26.6721    2.6752 H    0  0  0  0  0  0  0  0  0  0  0  0
  101.1895   25.9310    2.0666 H    0  0  0  0  0  0  0  0  0  0  0  0
  100.8330   25.3262    4.4683 H    0  0  0  0  0  0  0  0  0  0  0  0
  102.3058   26.2970    4.3048 H    0  0  0  0  0  0  0  0  0  0  0  0
  100.8220   27.0393    4.9182 H    0  0  0  0  0  0  0  0  0  0  0  0
  1  2  1  0
  1  3  1  0
  2  4  1  0
  2  5  1  0
  3  6  1  0
  4  7  1  0
  6  8  1  0
  7  9  1  0
  8 10  1  0
  9 11  1  0
 11 12  1  0
  2 13  1  0
  3 14  1  0
  3 15  1  0
  5 16  1  0
  5 17  1  0
  5 18  1  0
  6 19  1  0
  6 20  1  0
  7 21  1  0
  7 22  1  0
  8 23  1  0
  8 24  1  0
  9 25  1  0
  9 26  1  0
 10 27  1  0
 10 28  1  0
 10 29  1  0
 11 30  1  0
 11 31  1  0
 12 32  1  0
 12 33  1  0
 12 34  1  0
M  END
