
 OpenBabel05252317363D

 27 26  0  0  0  0  0  0  0  0999 V2000
    0.6447   -0.6700   -2.8920 S   0  0  0  0  0  0  0  0  0  0  0  0
   -0.2408   -1.3160   -4.3908 C   0  0  0  0  0  0  0  0  0  0  0  0
    2.3668   -1.3539   -2.7725 C   0  0  0  0  0  0  0  0  0  0  0  0
    0.6003   -1.2611   -5.6779 C   0  0  0  0  0  0  0  0  0  0  0  0
   -1.4436   -0.3749   -4.5936 C   0  0  0  0  0  0  0  0  0  0  0  0
   -0.7857   -2.7336   -4.1396 C   0  0  0  0  0  0  0  0  0  0  0  0
    3.3263   -0.5952   -3.7070 C   0  0  0  0  0  0  0  0  0  0  0  0
    2.4467   -2.8729   -3.0037 C   0  0  0  0  0  0  0  0  0  0  0  0
    2.8122   -1.0912   -1.3212 C   0  0  0  0  0  0  0  0  0  0  0  0
    0.9757   -0.2304   -5.8548 H   0  0  0  0  0  0  0  0  0  0  0  0
    1.4531   -1.9577   -5.6548 H   0  0  0  0  0  0  0  0  0  0  0  0
   -0.0160   -1.5587   -6.5540 H   0  0  0  0  0  0  0  0  0  0  0  0
   -2.0568   -0.6907   -5.4659 H   0  0  0  0  0  0  0  0  0  0  0  0
   -1.1009    0.6680   -4.7694 H   0  0  0  0  0  0  0  0  0  0  0  0
   -2.0984   -0.3746   -3.6952 H   0  0  0  0  0  0  0  0  0  0  0  0
    0.0186   -3.4749   -3.9990 H   0  0  0  0  0  0  0  0  0  0  0  0
   -1.3977   -3.0734   -5.0030 H   0  0  0  0  0  0  0  0  0  0  0  0
   -1.4263   -2.7472   -3.2317 H   0  0  0  0  0  0  0  0  0  0  0  0
    4.3712   -0.9435   -3.5572 H   0  0  0  0  0  0  0  0  0  0  0  0
    3.0828   -0.7453   -4.7721 H   0  0  0  0  0  0  0  0  0  0  0  0
    3.2893    0.4955   -3.4978 H   0  0  0  0  0  0  0  0  0  0  0  0
    2.2096   -3.1547   -4.0418 H   0  0  0  0  0  0  0  0  0  0  0  0
    1.7602   -3.4089   -2.3140 H   0  0  0  0  0  0  0  0  0  0  0  0
    3.4796   -3.2376   -2.8145 H   0  0  0  0  0  0  0  0  0  0  0  0
    2.1410   -1.6121   -0.6041 H   0  0  0  0  0  0  0  0  0  0  0  0
    3.8503   -1.4509   -1.1494 H   0  0  0  0  0  0  0  0  0  0  0  0
    2.7827   -0.0038   -1.0916 H   0  0  0  0  0  0  0  0  0  0  0  0
  1  2  1  0  0  0  0
  1  3  1  0  0  0  0
  2  4  1  0  0  0  0
  2  5  1  0  0  0  0
  2  6  1  0  0  0  0
  3  7  1  0  0  0  0
  3  8  1  0  0  0  0
  3  9  1  0  0  0  0
  4 10  1  0  0  0  0
  4 11  1  0  0  0  0
  4 12  1  0  0  0  0
  5 13  1  0  0  0  0
  5 14  1  0  0  0  0
  5 15  1  0  0  0  0
  6 16  1  0  0  0  0
  6 17  1  0  0  0  0
  6 18  1  0  0  0  0
  7 19  1  0  0  0  0
  7 20  1  0  0  0  0
  7 21  1  0  0  0  0
  8 22  1  0  0  0  0
  8 23  1  0  0  0  0
  8 24  1  0  0  0  0
  9 25  1  0  0  0  0
  9 26  1  0  0  0  0
  9 27  1  0  0  0  0
M  END
