
 OpenBabel05252317573D

 28 27  0  0  0  0  0  0  0  0999 V2000
   -0.3453    0.6323    0.3647 O   0  0  0  0  0  0  0  0  0  0  0  0
    0.1636   -0.3519    1.0954 O   0  0  0  0  0  0  0  0  0  0  0  0
   -1.6150    0.2212   -0.1090 C   0  0  0  0  0  0  0  0  0  0  0  0
    1.5718   -0.3312    0.9468 C   0  0  0  0  0  0  0  0  0  0  0  0
   -1.4963   -1.0329   -1.0018 C   0  0  0  0  0  0  0  0  0  0  0  0
   -2.5789   -0.0420    1.0677 C   0  0  0  0  0  0  0  0  0  0  0  0
   -2.1775    1.3729   -0.9559 C   0  0  0  0  0  0  0  0  0  0  0  0
    2.1341   -1.4823    1.7947 C   0  0  0  0  0  0  0  0  0  0  0  0
    1.9793   -0.5603   -0.5248 C   0  0  0  0  0  0  0  0  0  0  0  0
    2.1575    0.9980    1.4694 C   0  0  0  0  0  0  0  0  0  0  0  0
   -1.1001   -1.8971   -0.4274 H   0  0  0  0  0  0  0  0  0  0  0  0
   -2.4906   -1.3206   -1.4067 H   0  0  0  0  0  0  0  0  0  0  0  0
   -0.8126   -0.8371   -1.8553 H   0  0  0  0  0  0  0  0  0  0  0  0
   -2.6688    0.8649    1.7034 H   0  0  0  0  0  0  0  0  0  0  0  0
   -2.2154   -0.8777    1.7027 H   0  0  0  0  0  0  0  0  0  0  0  0
   -3.5896   -0.3134    0.6932 H   0  0  0  0  0  0  0  0  0  0  0  0
   -1.4993    1.5930   -1.8085 H   0  0  0  0  0  0  0  0  0  0  0  0
   -3.1809    1.1170   -1.3605 H   0  0  0  0  0  0  0  0  0  0  0  0
   -2.2698    2.2954   -0.3429 H   0  0  0  0  0  0  0  0  0  0  0  0
    1.7228   -2.4549    1.4478 H   0  0  0  0  0  0  0  0  0  0  0  0
    3.2429   -1.5236    1.7255 H   0  0  0  0  0  0  0  0  0  0  0  0
    1.8524   -1.3508    2.8618 H   0  0  0  0  0  0  0  0  0  0  0  0
    1.6004    0.2553   -1.1767 H   0  0  0  0  0  0  0  0  0  0  0  0
    1.5679   -1.5236   -0.8949 H   0  0  0  0  0  0  0  0  0  0  0  0
    3.0859   -0.5891   -0.6245 H   0  0  0  0  0  0  0  0  0  0  0  0
    1.8697    1.1559    2.5309 H   0  0  0  0  0  0  0  0  0  0  0  0
    3.2669    0.9913    1.4006 H   0  0  0  0  0  0  0  0  0  0  0  0
    1.7849    1.8597    0.8758 H   0  0  0  0  0  0  0  0  0  0  0  0
  1  2  1  0  0  0  0
  1  3  1  0  0  0  0
  2  4  1  0  0  0  0
  3  5  1  0  0  0  0
  3  6  1  0  0  0  0
  3  7  1  0  0  0  0
  4  8  1  0  0  0  0
  4  9  1  0  0  0  0
  4 10  1  0  0  0  0
  5 11  1  0  0  0  0
  5 12  1  0  0  0  0
  5 13  1  0  0  0  0
  6 14  1  0  0  0  0
  6 15  1  0  0  0  0
  6 16  1  0  0  0  0
  7 17  1  0  0  0  0
  7 18  1  0  0  0  0
  7 19  1  0  0  0  0
  8 20  1  0  0  0  0
  8 21  1  0  0  0  0
  8 22  1  0  0  0  0
  9 23  1  0  0  0  0
  9 24  1  0  0  0  0
  9 25  1  0  0  0  0
 10 26  1  0  0  0  0
 10 27  1  0  0  0  0
 10 28  1  0  0  0  0
M  END
