
 OpenBabel10232210243D

 40 40  0  0  0  0  0  0  0  0999 V2000
    1.5833    0.7195    1.8630 S   0  0  0  0  0  0  0  0  0  0  0  0
    1.8758    0.2397    0.1822 P   0  0  0  0  0  0  0  0  0  0  0  0
    0.8652   -1.1121   -0.1691 O   0  0  0  0  0  0  0  0  0  0  0  0
    1.4240    1.5780   -0.8511 O   0  0  0  0  0  0  0  0  0  0  0  0
    3.5708   -0.1719    0.0131 O   0  0  0  0  0  0  0  0  0  0  0  0
   -1.1425    0.0912    0.1389 N   0  0  0  0  0  0  0  0  0  0  0  0
   -3.2251   -0.9742   -0.0950 N   0  0  0  0  0  0  0  0  0  0  0  0
   -3.2009    1.4416    0.4784 C   0  0  0  0  0  0  0  0  0  0  0  0
   -2.5009    0.1471    0.1649 C   0  0  0  0  0  0  0  0  0  0  0  0
   -2.8474    2.5039   -0.5679 C   0  0  0  0  0  0  0  0  0  0  0  0
   -2.8273    1.9208    1.8850 C   0  0  0  0  0  0  0  0  0  0  0  0
   -0.4858   -1.0666   -0.1421 C   0  0  0  0  0  0  0  0  0  0  0  0
   -2.6148   -2.1552   -0.3818 C   0  0  0  0  0  0  0  0  0  0  0  0
   -1.2180   -2.2233   -0.4113 C   0  0  0  0  0  0  0  0  0  0  0  0
   -3.4379   -3.3713   -0.6638 C   0  0  0  0  0  0  0  0  0  0  0  0
    2.5402    2.4174   -1.0053 C   0  0  0  0  0  0  0  0  0  0  0  0
    3.7243   -1.5446    0.2723 C   0  0  0  0  0  0  0  0  0  0  0  0
    2.1231    3.6521   -1.7894 C   0  0  0  0  0  0  0  0  0  0  0  0
    5.2062   -1.8866    0.2622 C   0  0  0  0  0  0  0  0  0  0  0  0
   -4.3011    1.2772    0.4485 H   0  0  0  0  0  0  0  0  0  0  0  0
   -1.7555    2.7131   -0.5689 H   0  0  0  0  0  0  0  0  0  0  0  0
   -3.3897    3.4491   -0.3517 H   0  0  0  0  0  0  0  0  0  0  0  0
   -3.1457    2.1556   -1.5800 H   0  0  0  0  0  0  0  0  0  0  0  0
   -3.1108    1.1532    2.6366 H   0  0  0  0  0  0  0  0  0  0  0  0
   -3.3694    2.8601    2.1256 H   0  0  0  0  0  0  0  0  0  0  0  0
   -1.7348    2.1113    1.9626 H   0  0  0  0  0  0  0  0  0  0  0  0
   -0.7111   -3.1535   -0.6382 H   0  0  0  0  0  0  0  0  0  0  0  0
   -3.2004   -4.1648    0.0757 H   0  0  0  0  0  0  0  0  0  0  0  0
   -4.5211   -3.1345   -0.5972 H   0  0  0  0  0  0  0  0  0  0  0  0
   -3.2169   -3.7452   -1.6856 H   0  0  0  0  0  0  0  0  0  0  0  0
    2.9235    2.7600   -0.0173 H   0  0  0  0  0  0  0  0  0  0  0  0
    3.3393    1.8993   -1.5806 H   0  0  0  0  0  0  0  0  0  0  0  0
    3.3243   -1.8090    1.2777 H   0  0  0  0  0  0  0  0  0  0  0  0
    3.2288   -2.1472   -0.5210 H   0  0  0  0  0  0  0  0  0  0  0  0
    2.9959    4.3257   -1.9229 H   0  0  0  0  0  0  0  0  0  0  0  0
    1.7399    3.3567   -2.7892 H   0  0  0  0  0  0  0  0  0  0  0  0
    1.3261    4.1989   -1.2419 H   0  0  0  0  0  0  0  0  0  0  0  0
    5.3435   -2.9702    0.4625 H   0  0  0  0  0  0  0  0  0  0  0  0
    5.6459   -1.6450   -0.7288 H   0  0  0  0  0  0  0  0  0  0  0  0
    5.7362   -1.3054    1.0466 H   0  0  0  0  0  0  0  0  0  0  0  0
  1  2  2  0  0  0  0
  2  3  1  0  0  0  0
  2  4  1  0  0  0  0
  2  5  1  0  0  0  0
  3 12  1  0  0  0  0
  4 16  1  0  0  0  0
  5 17  1  0  0  0  0
  6  9  1  0  0  0  0
  6 12  2  0  0  0  0
  7  9  2  0  0  0  0
  7 13  1  0  0  0  0
  8  9  1  0  0  0  0
  8 10  1  0  0  0  0
  8 11  1  0  0  0  0
  8 20  1  0  0  0  0
 10 21  1  0  0  0  0
 10 22  1  0  0  0  0
 10 23  1  0  0  0  0
 11 24  1  0  0  0  0
 11 25  1  0  0  0  0
 11 26  1  0  0  0  0
 12 14  1  0  0  0  0
 13 14  2  0  0  0  0
 13 15  1  0  0  0  0
 14 27  1  0  0  0  0
 15 28  1  0  0  0  0
 15 29  1  0  0  0  0
 15 30  1  0  0  0  0
 16 18  1  0  0  0  0
 16 31  1  0  0  0  0
 16 32  1  0  0  0  0
 17 19  1  0  0  0  0
 17 33  1  0  0  0  0
 17 34  1  0  0  0  0
 18 35  1  0  0  0  0
 18 36  1  0  0  0  0
 18 37  1  0  0  0  0
 19 38  1  0  0  0  0
 19 39  1  0  0  0  0
 19 40  1  0  0  0  0
M  END
