
 OpenBabel05312300403D

 21 23  0  0  0  0  0  0  0  0999 V2000
   -0.0000   -2.0722   -0.0003 S   0  0  0  0  0  0  0  0  0  0  0  0
    0.7017    0.3676   -0.0001 C   0  0  0  0  0  0  0  0  0  0  0  0
   -0.7017    0.3676   -0.0001 C   0  0  0  0  0  0  0  0  0  0  0  0
    1.2340   -0.9207   -0.0002 C   0  0  0  0  0  0  0  0  0  0  0  0
   -1.2341   -0.9207   -0.0002 C   0  0  0  0  0  0  0  0  0  0  0  0
    1.5565    1.4780   -0.0000 C   0  0  0  0  0  0  0  0  0  0  0  0
   -1.5565    1.4780   -0.0000 C   0  0  0  0  0  0  0  0  0  0  0  0
    2.6082   -1.1496   -0.0002 C   0  0  0  0  0  0  0  0  0  0  0  0
   -2.6082   -1.1496   -0.0002 C   0  0  0  0  0  0  0  0  0  0  0  0
    2.9450    1.2651   -0.0000 C   0  0  0  0  0  0  0  0  0  0  0  0
   -2.9450    1.2651   -0.0000 C   0  0  0  0  0  0  0  0  0  0  0  0
    3.4679   -0.0415   -0.0001 C   0  0  0  0  0  0  0  0  0  0  0  0
   -3.4680   -0.0414   -0.0001 C   0  0  0  0  0  0  0  0  0  0  0  0
    1.1690    2.4878    0.0000 H   0  0  0  0  0  0  0  0  0  0  0  0
   -1.1690    2.4878    0.0000 H   0  0  0  0  0  0  0  0  0  0  0  0
    3.0041   -2.1569   -0.0003 H   0  0  0  0  0  0  0  0  0  0  0  0
   -3.0042   -2.1568   -0.0003 H   0  0  0  0  0  0  0  0  0  0  0  0
    3.6180    2.1127    0.0000 H   0  0  0  0  0  0  0  0  0  0  0  0
   -3.6180    2.1127    0.0000 H   0  0  0  0  0  0  0  0  0  0  0  0
    4.5396   -0.1923   -0.0001 H   0  0  0  0  0  0  0  0  0  0  0  0
   -4.5396   -0.1923   -0.0001 H   0  0  0  0  0  0  0  0  0  0  0  0
  1  4  1  0  0  0  0
  1  5  1  0  0  0  0
  2  3  1  0  0  0  0
  2  4  1  0  0  0  0
  2  6  2  0  0  0  0
  3  5  1  0  0  0  0
  3  7  2  0  0  0  0
  4  8  2  0  0  0  0
  5  9  2  0  0  0  0
  6 10  1  0  0  0  0
  6 14  1  0  0  0  0
  7 11  1  0  0  0  0
  7 15  1  0  0  0  0
  8 12  1  0  0  0  0
  8 16  1  0  0  0  0
  9 13  1  0  0  0  0
  9 17  1  0  0  0  0
 10 12  2  0  0  0  0
 10 18  1  0  0  0  0
 11 13  2  0  0  0  0
 11 19  1  0  0  0  0
 12 20  1  0  0  0  0
 13 21  1  0  0  0  0
M  END
