
 OpenBabel10232210073D

  6  5  0  0  0  0  0  0  0  0999 V2000
    1.3126   -1.5787   -0.2242 Br  0  0  0  0  0  0  0  0  0  0  0  0
    1.3125    1.5787   -0.2242 Br  0  0  0  0  0  0  0  0  0  0  0  0
   -2.0789   -0.0001   -0.1910 N   0  0  0  0  0  0  0  0  0  0  0  0
    0.4524    0.0000    0.4879 C   0  0  0  0  0  0  0  0  0  0  0  0
   -0.9610   -0.0000    0.1085 C   0  0  0  0  0  0  0  0  0  0  0  0
    0.5382    0.0000    1.5940 H   0  0  0  0  0  0  0  0  0  0  0  0
  1  4  1  0  0  0  0
  2  4  1  0  0  0  0
  3  5  3  0  0  0  0
  4  5  1  0  0  0  0
  4  6  1  0  0  0  0
M  END
