
 OpenBabel05312300483D

 35 36  0  0  0  0  0  0  0  0999 V2000
    0.0000   -1.4357   -0.0000 S   0  0  0  0  0  0  0  0  0  0  0  0
    1.3723   -0.2231   -0.0548 C   0  0  0  0  0  0  0  0  0  0  0  0
   -1.3723   -0.2231    0.0548 C   0  0  0  0  0  0  0  0  0  0  0  0
    1.8393    0.1169    1.3715 C   0  0  0  0  0  0  0  0  0  0  0  0
    2.5360   -0.8104   -0.8711 C   0  0  0  0  0  0  0  0  0  0  0  0
   -1.8393    0.1169   -1.3715 C   0  0  0  0  0  0  0  0  0  0  0  0
   -2.5360   -0.8105    0.8711 C   0  0  0  0  0  0  0  0  0  0  0  0
    3.0168    1.1012    1.3269 C   0  0  0  0  0  0  0  0  0  0  0  0
    3.7125    0.1757   -0.9114 C   0  0  0  0  0  0  0  0  0  0  0  0
   -3.0168    1.1012   -1.3269 C   0  0  0  0  0  0  0  0  0  0  0  0
   -3.7125    0.1756    0.9114 C   0  0  0  0  0  0  0  0  0  0  0  0
    4.1770    0.5111    0.5128 C   0  0  0  0  0  0  0  0  0  0  0  0
   -4.1770    0.5111   -0.5128 C   0  0  0  0  0  0  0  0  0  0  0  0
    1.0390    0.7018   -0.5755 H   0  0  0  0  0  0  0  0  0  0  0  0
   -1.0390    0.7018    0.5755 H   0  0  0  0  0  0  0  0  0  0  0  0
    2.1583   -0.8134    1.8918 H   0  0  0  0  0  0  0  0  0  0  0  0
    1.0050    0.5688    1.9491 H   0  0  0  0  0  0  0  0  0  0  0  0
    2.1999   -1.0271   -1.9082 H   0  0  0  0  0  0  0  0  0  0  0  0
    2.8746   -1.7638   -0.4076 H   0  0  0  0  0  0  0  0  0  0  0  0
   -2.1583   -0.8134   -1.8919 H   0  0  0  0  0  0  0  0  0  0  0  0
   -1.0050    0.5688   -1.9491 H   0  0  0  0  0  0  0  0  0  0  0  0
   -2.1999   -1.0272    1.9082 H   0  0  0  0  0  0  0  0  0  0  0  0
   -2.8746   -1.7638    0.4076 H   0  0  0  0  0  0  0  0  0  0  0  0
    3.3593    1.3218    2.3607 H   0  0  0  0  0  0  0  0  0  0  0  0
    2.6842    2.0546    0.8600 H   0  0  0  0  0  0  0  0  0  0  0  0
    3.3958    1.1092   -1.4270 H   0  0  0  0  0  0  0  0  0  0  0  0
    4.5541   -0.2689   -1.4847 H   0  0  0  0  0  0  0  0  0  0  0  0
   -3.3593    1.3219   -2.3606 H   0  0  0  0  0  0  0  0  0  0  0  0
   -2.6842    2.0546   -0.8599 H   0  0  0  0  0  0  0  0  0  0  0  0
   -3.3958    1.1092    1.4270 H   0  0  0  0  0  0  0  0  0  0  0  0
   -4.5541   -0.2690    1.4847 H   0  0  0  0  0  0  0  0  0  0  0  0
    5.0140    1.2406    0.4713 H   0  0  0  0  0  0  0  0  0  0  0  0
    4.5455   -0.4134    1.0098 H   0  0  0  0  0  0  0  0  0  0  0  0
   -5.0141    1.2406   -0.4713 H   0  0  0  0  0  0  0  0  0  0  0  0
   -4.5455   -0.4134   -1.0098 H   0  0  0  0  0  0  0  0  0  0  0  0
  1  2  1  0  0  0  0
  1  3  1  0  0  0  0
  2  4  1  0  0  0  0
  2  5  1  0  0  0  0
  2 14  1  0  0  0  0
  3  6  1  0  0  0  0
  3  7  1  0  0  0  0
  3 15  1  0  0  0  0
  4  8  1  0  0  0  0
  4 16  1  0  0  0  0
  4 17  1  0  0  0  0
  5  9  1  0  0  0  0
  5 18  1  0  0  0  0
  5 19  1  0  0  0  0
  6 10  1  0  0  0  0
  6 20  1  0  0  0  0
  6 21  1  0  0  0  0
  7 11  1  0  0  0  0
  7 22  1  0  0  0  0
  7 23  1  0  0  0  0
  8 12  1  0  0  0  0
  8 24  1  0  0  0  0
  8 25  1  0  0  0  0
  9 12  1  0  0  0  0
  9 26  1  0  0  0  0
  9 27  1  0  0  0  0
 10 13  1  0  0  0  0
 10 28  1  0  0  0  0
 10 29  1  0  0  0  0
 11 13  1  0  0  0  0
 11 30  1  0  0  0  0
 11 31  1  0  0  0  0
 12 32  1  0  0  0  0
 12 33  1  0  0  0  0
 13 34  1  0  0  0  0
 13 35  1  0  0  0  0
M  END
