
 OpenBabel05242319303D

 26 25  0  0  0  0  0  0  0  0999 V2000
   -2.8310   -0.8446    0.1729 O   0  0  0  0  0  0  0  0  0  0  0  0
    2.2397    0.5047   -0.6070 O   0  0  0  0  0  0  0  0  0  0  0  0
   -2.6590    0.4228   -1.6725 O   0  0  0  0  0  0  0  0  0  0  0  0
    2.0680   -0.7614    1.2393 O   0  0  0  0  0  0  0  0  0  0  0  0
   -0.7640    0.4346   -0.2647 C   0  0  0  0  0  0  0  0  0  0  0  0
    0.1725   -0.7736   -0.1678 C   0  0  0  0  0  0  0  0  0  0  0  0
   -2.1516    0.0029   -0.6413 C   0  0  0  0  0  0  0  0  0  0  0  0
    1.5604   -0.3420    0.2081 C   0  0  0  0  0  0  0  0  0  0  0  0
   -4.1079   -1.3008   -0.0830 C   0  0  0  0  0  0  0  0  0  0  0  0
    3.5169    0.9605   -0.3522 C   0  0  0  0  0  0  0  0  0  0  0  0
   -4.5502   -2.2303    1.0364 C   0  0  0  0  0  0  0  0  0  0  0  0
    3.9593    1.8885   -1.4728 C   0  0  0  0  0  0  0  0  0  0  0  0
   -0.3743    1.1452   -1.0274 H   0  0  0  0  0  0  0  0  0  0  0  0
   -0.8069    0.9570    0.7155 H   0  0  0  0  0  0  0  0  0  0  0  0
   -0.2170   -1.4840    0.5951 H   0  0  0  0  0  0  0  0  0  0  0  0
    0.2152   -1.2963   -1.1479 H   0  0  0  0  0  0  0  0  0  0  0  0
   -4.8110   -0.4413   -0.1433 H   0  0  0  0  0  0  0  0  0  0  0  0
   -4.1240   -1.8564   -1.0463 H   0  0  0  0  0  0  0  0  0  0  0  0
    3.5340    1.5170    0.6105 H   0  0  0  0  0  0  0  0  0  0  0  0
    4.2196    0.1006   -0.2914 H   0  0  0  0  0  0  0  0  0  0  0  0
   -5.5775   -2.5996    0.8332 H   0  0  0  0  0  0  0  0  0  0  0  0
   -3.8617   -3.0994    1.1039 H   0  0  0  0  0  0  0  0  0  0  0  0
   -4.5476   -1.6875    2.0054 H   0  0  0  0  0  0  0  0  0  0  0  0
    4.9869    2.2574   -1.2706 H   0  0  0  0  0  0  0  0  0  0  0  0
    3.9557    1.3446   -2.4413 H   0  0  0  0  0  0  0  0  0  0  0  0
    3.2713    2.7579   -1.5408 H   0  0  0  0  0  0  0  0  0  0  0  0
  1  7  1  0  0  0  0
  1  9  1  0  0  0  0
  2  8  1  0  0  0  0
  2 10  1  0  0  0  0
  3  7  2  0  0  0  0
  4  8  2  0  0  0  0
  5  6  1  0  0  0  0
  5  7  1  0  0  0  0
  5 13  1  0  0  0  0
  5 14  1  0  0  0  0
  6  8  1  0  0  0  0
  6 15  1  0  0  0  0
  6 16  1  0  0  0  0
  9 11  1  0  0  0  0
  9 17  1  0  0  0  0
  9 18  1  0  0  0  0
 10 12  1  0  0  0  0
 10 19  1  0  0  0  0
 10 20  1  0  0  0  0
 11 21  1  0  0  0  0
 11 22  1  0  0  0  0
 11 23  1  0  0  0  0
 12 24  1  0  0  0  0
 12 25  1  0  0  0  0
 12 26  1  0  0  0  0
M  END
