
 OpenBabel11251909383D

 30 30  0  0  0  0  0  0  0  0999 V2000
   -1.6535    0.7860    0.0820 C   0  0  0  0  0  0  0  0  0  0  0  0
   -0.7733   -0.4357    0.1676 C   0  0  0  0  0  0  0  0  0  0  0  0
    0.6777   -0.4566    0.1939 C   0  0  0  0  0  0  0  0  0  0  0  0
    1.5960    0.7361    0.1003 C   0  0  0  0  0  0  0  0  0  0  0  0
    1.1749    1.8608   -0.0985 O   0  0  0  0  0  0  0  0  0  0  0  0
    2.9394    0.5449    0.2073 O   0  0  0  0  0  0  0  0  0  0  0  0
    3.8672    1.5639    0.1202 C   0  0  0  0  0  0  0  0  0  0  0  0
    5.2667    0.9923    0.2853 C   0  0  0  0  0  0  0  0  0  0  0  0
    1.3225   -1.7127    0.3052 C   0  0  0  0  0  0  0  0  0  0  0  0
    0.6048   -2.9003    0.3795 C   0  0  0  0  0  0  0  0  0  0  0  0
   -0.7776   -2.8810    0.3453 C   0  0  0  0  0  0  0  0  0  0  0  0
   -1.4575   -1.6735    0.2416 C   0  0  0  0  0  0  0  0  0  0  0  0
   -1.1967    1.9140    0.1130 O   0  0  0  0  0  0  0  0  0  0  0  0
   -3.0024    0.6235    0.0020 O   0  0  0  0  0  0  0  0  0  0  0  0
   -3.8976    1.6728   -0.0644 C   0  0  0  0  0  0  0  0  0  0  0  0
   -5.3148    1.1273   -0.1452 C   0  0  0  0  0  0  0  0  0  0  0  0
    3.7914    2.0608   -0.8719 H   0  0  0  0  0  0  0  0  0  0  0  0
    3.6827    2.3128    0.9215 H   0  0  0  0  0  0  0  0  0  0  0  0
    5.3619    0.4991    1.2760 H   0  0  0  0  0  0  0  0  0  0  0  0
    5.4702    0.2475   -0.5133 H   0  0  0  0  0  0  0  0  0  0  0  0
    6.0160    1.8088    0.2158 H   0  0  0  0  0  0  0  0  0  0  0  0
    2.4025   -1.7816    0.3290 H   0  0  0  0  0  0  0  0  0  0  0  0
    1.1289   -3.8440    0.4614 H   0  0  0  0  0  0  0  0  0  0  0  0
   -1.3312   -3.8095    0.4025 H   0  0  0  0  0  0  0  0  0  0  0  0
   -2.5391   -1.7112    0.2258 H   0  0  0  0  0  0  0  0  0  0  0  0
   -3.8032    2.3085    0.8433 H   0  0  0  0  0  0  0  0  0  0  0  0
   -3.6922    2.2886   -0.9674 H   0  0  0  0  0  0  0  0  0  0  0  0
   -5.4285    0.4961   -1.0521 H   0  0  0  0  0  0  0  0  0  0  0  0
   -5.5391    0.5157    0.7545 H   0  0  0  0  0  0  0  0  0  0  0  0
   -6.0380    1.9683   -0.1986 H   0  0  0  0  0  0  0  0  0  0  0  0
  1  2  1  0  0  0  0
  1 13  2  0  0  0  0
  1 14  1  0  0  0  0
  2  3  1  0  0  0  0
  2 12  2  0  0  0  0
  3  4  1  0  0  0  0
  3  9  2  0  0  0  0
  4  5  2  0  0  0  0
  4  6  1  0  0  0  0
  6  7  1  0  0  0  0
  7  8  1  0  0  0  0
  7 17  1  0  0  0  0
  7 18  1  0  0  0  0
  8 19  1  0  0  0  0
  8 20  1  0  0  0  0
  8 21  1  0  0  0  0
  9 10  1  0  0  0  0
  9 22  1  0  0  0  0
 10 11  2  0  0  0  0
 10 23  1  0  0  0  0
 11 12  1  0  0  0  0
 11 24  1  0  0  0  0
 12 25  1  0  0  0  0
 14 15  1  0  0  0  0
 15 16  1  0  0  0  0
 15 26  1  0  0  0  0
 15 27  1  0  0  0  0
 16 28  1  0  0  0  0
 16 29  1  0  0  0  0
 16 30  1  0  0  0  0
M  END
