
 OpenBabel11072209163D

 35 35  0  0  0  0  0  0  0  0999 V2000
   -0.8842    0.0920   -1.9059 O   0  0  0  0  0  0  0  0  0  0  0  0
    0.4206   -0.5300   -0.2021 N   0  0  0  0  0  0  0  0  0  0  0  0
    3.1677   -0.0762    0.3998 N   0  0  0  0  0  0  0  0  0  0  0  0
   -1.9600    0.0769    0.0520 N   0  0  0  0  0  0  0  0  0  0  0  0
    0.8483   -0.4205    1.1949 C   0  0  0  0  0  0  0  0  0  0  0  0
    1.4702   -0.9909   -1.1156 C   0  0  0  0  0  0  0  0  0  0  0  0
    2.1078    0.4557    1.2756 C   0  0  0  0  0  0  0  0  0  0  0  0
    2.7011   -0.0931   -0.9988 C   0  0  0  0  0  0  0  0  0  0  0  0
   -0.8082   -0.1198   -0.7008 C   0  0  0  0  0  0  0  0  0  0  0  0
    4.3848    0.7397    0.5196 C   0  0  0  0  0  0  0  0  0  0  0  0
   -3.0593    0.8508   -0.5413 C   0  0  0  0  0  0  0  0  0  0  0  0
   -2.2034   -0.5385    1.3653 C   0  0  0  0  0  0  0  0  0  0  0  0
   -2.6479    2.3077   -0.7718 C   0  0  0  0  0  0  0  0  0  0  0  0
   -3.4206   -1.4755    1.3457 C   0  0  0  0  0  0  0  0  0  0  0  0
    1.0740   -1.4328    1.5961 H   0  0  0  0  0  0  0  0  0  0  0  0
    0.1318    0.1103    1.8447 H   0  0  0  0  0  0  0  0  0  0  0  0
    1.1457   -1.0247   -2.1774 H   0  0  0  0  0  0  0  0  0  0  0  0
    1.7563   -2.0285   -0.8347 H   0  0  0  0  0  0  0  0  0  0  0  0
    1.8465    1.4970    0.9733 H   0  0  0  0  0  0  0  0  0  0  0  0
    2.4555    0.4784    2.3324 H   0  0  0  0  0  0  0  0  0  0  0  0
    3.4962   -0.4989   -1.6628 H   0  0  0  0  0  0  0  0  0  0  0  0
    2.4435    0.9348   -1.3438 H   0  0  0  0  0  0  0  0  0  0  0  0
    5.1924    0.3169   -0.1158 H   0  0  0  0  0  0  0  0  0  0  0  0
    4.7508    0.7292    1.5687 H   0  0  0  0  0  0  0  0  0  0  0  0
    4.1978    1.7932    0.2127 H   0  0  0  0  0  0  0  0  0  0  0  0
   -3.9390    0.8966    0.1310 H   0  0  0  0  0  0  0  0  0  0  0  0
   -3.3858    0.3864   -1.4973 H   0  0  0  0  0  0  0  0  0  0  0  0
   -2.3470    0.2485    2.1365 H   0  0  0  0  0  0  0  0  0  0  0  0
   -1.4037   -1.2346    1.6627 H   0  0  0  0  0  0  0  0  0  0  0  0
   -1.7978    2.3880   -1.4792 H   0  0  0  0  0  0  0  0  0  0  0  0
   -2.3558    2.7744    0.1931 H   0  0  0  0  0  0  0  0  0  0  0  0
   -3.5039    2.8732   -1.1965 H   0  0  0  0  0  0  0  0  0  0  0  0
   -3.2733   -2.2718    0.5848 H   0  0  0  0  0  0  0  0  0  0  0  0
   -4.3716   -0.9510    1.1337 H   0  0  0  0  0  0  0  0  0  0  0  0
   -3.5312   -1.9562    2.3412 H   0  0  0  0  0  0  0  0  0  0  0  0
  1  9  2  0  0  0  0
  2  5  1  0  0  0  0
  2  6  1  0  0  0  0
  2  9  1  0  0  0  0
  3  7  1  0  0  0  0
  3  8  1  0  0  0  0
  3 10  1  0  0  0  0
  4  9  1  0  0  0  0
  4 11  1  0  0  0  0
  4 12  1  0  0  0  0
  5  7  1  0  0  0  0
  5 15  1  0  0  0  0
  5 16  1  0  0  0  0
  6  8  1  0  0  0  0
  6 17  1  0  0  0  0
  6 18  1  0  0  0  0
  7 19  1  0  0  0  0
  7 20  1  0  0  0  0
  8 21  1  0  0  0  0
  8 22  1  0  0  0  0
 10 23  1  0  0  0  0
 10 24  1  0  0  0  0
 10 25  1  0  0  0  0
 11 13  1  0  0  0  0
 11 26  1  0  0  0  0
 11 27  1  0  0  0  0
 12 14  1  0  0  0  0
 12 28  1  0  0  0  0
 12 29  1  0  0  0  0
 13 30  1  0  0  0  0
 13 31  1  0  0  0  0
 13 32  1  0  0  0  0
 14 33  1  0  0  0  0
 14 34  1  0  0  0  0
 14 35  1  0  0  0  0
M  END
