
 OpenBabel05312300563D

 26 25  0  0  0  0  0  0  0  0999 V2000
   -1.7498   -0.4068    0.0011 O   0  0  0  0  0  0  0  0  0  0  0  0
    1.7772    0.3979    0.0016 O   0  0  0  0  0  0  0  0  0  0  0  0
    5.3281   -0.2589   -0.0041 O   0  0  0  0  0  0  0  0  0  0  0  0
   -0.6125    0.4294    0.0039 C   0  0  0  0  0  0  0  0  0  0  0  0
   -2.9173    0.3863    0.0062 C   0  0  0  0  0  0  0  0  0  0  0  0
    0.6400   -0.4382   -0.0011 C   0  0  0  0  0  0  0  0  0  0  0  0
   -4.1375   -0.5338    0.0026 C   0  0  0  0  0  0  0  0  0  0  0  0
    2.9442   -0.3959   -0.0025 C   0  0  0  0  0  0  0  0  0  0  0  0
   -5.4377    0.2656    0.0079 C   0  0  0  0  0  0  0  0  0  0  0  0
    4.1632    0.5178   -0.0000 C   0  0  0  0  0  0  0  0  0  0  0  0
   -0.5911    1.0690   -0.9085 H   0  0  0  0  0  0  0  0  0  0  0  0
   -0.5895    1.0607    0.9220 H   0  0  0  0  0  0  0  0  0  0  0  0
   -2.9601    1.0253   -0.9060 H   0  0  0  0  0  0  0  0  0  0  0  0
   -2.9585    1.0159    0.9251 H   0  0  0  0  0  0  0  0  0  0  0  0
    0.6169   -1.0695   -0.9192 H   0  0  0  0  0  0  0  0  0  0  0  0
    0.6185   -1.0777    0.9113 H   0  0  0  0  0  0  0  0  0  0  0  0
   -4.1114   -1.1770   -0.9039 H   0  0  0  0  0  0  0  0  0  0  0  0
   -4.1098   -1.1863    0.9023 H   0  0  0  0  0  0  0  0  0  0  0  0
    2.9907   -1.0334    0.9103 H   0  0  0  0  0  0  0  0  0  0  0  0
    2.9891   -1.0262   -0.9205 H   0  0  0  0  0  0  0  0  0  0  0  0
   -5.4981    0.9111   -0.8942 H   0  0  0  0  0  0  0  0  0  0  0  0
   -6.3025   -0.4308    0.0051 H   0  0  0  0  0  0  0  0  0  0  0  0
   -5.4965    0.9017    0.9167 H   0  0  0  0  0  0  0  0  0  0  0  0
    4.1364    1.1524    0.9142 H   0  0  0  0  0  0  0  0  0  0  0  0
    4.1348    1.1595   -0.9092 H   0  0  0  0  0  0  0  0  0  0  0  0
    6.0856    0.3822   -0.0022 H   0  0  0  0  0  0  0  0  0  0  0  0
  1  4  1  0  0  0  0
  1  5  1  0  0  0  0
  2  6  1  0  0  0  0
  2  8  1  0  0  0  0
  3 10  1  0  0  0  0
  3 26  1  0  0  0  0
  4  6  1  0  0  0  0
  4 11  1  0  0  0  0
  4 12  1  0  0  0  0
  5  7  1  0  0  0  0
  5 13  1  0  0  0  0
  5 14  1  0  0  0  0
  6 15  1  0  0  0  0
  6 16  1  0  0  0  0
  7  9  1  0  0  0  0
  7 17  1  0  0  0  0
  7 18  1  0  0  0  0
  8 10  1  0  0  0  0
  8 19  1  0  0  0  0
  8 20  1  0  0  0  0
  9 21  1  0  0  0  0
  9 22  1  0  0  0  0
  9 23  1  0  0  0  0
 10 24  1  0  0  0  0
 10 25  1  0  0  0  0
M  END
