
 OpenBabel11042217273D

118125  0  0  1  0  0  0  0  0999 V2000
    0.0330   -0.6544    3.3166 O   0  0  0  0  0  0  0  0  0  0  0  0
   -4.3238   -3.7693   -3.0912 O   0  0  0  0  0  0  0  0  0  0  0  0
    5.3704   -3.8228    5.2255 O   0  0  0  0  0  0  0  0  0  0  0  0
   -6.1817   -5.0516   -3.4312 O   0  0  0  0  0  0  0  0  0  0  0  0
    6.5130   -2.3429    6.4921 O   0  0  0  0  0  0  0  0  0  0  0  0
   -7.3125   -1.1309   -4.4648 O   0  0  0  0  0  0  0  0  0  0  0  0
   -7.4248   -3.7783   -6.1806 O   0  0  0  0  0  0  0  0  0  0  0  0
   -5.3712   -2.9258   -6.9571 O   0  0  0  0  0  0  0  0  0  0  0  0
   -4.4880   -3.7277   -9.6079 O   0  0  0  0  0  0  0  0  0  0  0  0
   -6.6361   -5.4533  -10.0491 O   0  0  0  0  0  0  0  0  0  0  0  0
   -4.4225   -3.5789  -11.9042 O   0  0  0  0  0  0  0  0  0  0  0  0
   -0.6238   -4.8520  -10.7982 O   0  0  0  0  0  0  0  0  0  0  0  0
   -1.2138   -4.3913  -13.3487 O   0  0  0  0  0  0  0  0  0  0  0  0
    0.7591   -1.3232    2.3005 C   0  0  2  0  0  0  0  0  0  0  0  0
   -0.2465   -1.8124    1.1970 C   0  0  2  0  0  0  0  0  0  0  0  0
    0.4210   -2.7402    0.1265 C   0  0  2  0  0  0  0  0  0  0  0  0
    1.5584   -2.4972    2.9543 C   0  0  1  0  0  0  0  0  0  0  0  0
   -0.5980   -3.2278   -0.9921 C   0  0  2  0  0  0  0  0  0  0  0  0
   -1.3387   -1.9756   -1.5931 C   0  0  2  0  0  0  0  0  0  0  0  0
    1.1612   -3.9068    0.8387 C   0  0  0  0  0  0  0  0  0  0  0  0
    2.1972   -3.3956    1.8492 C   0  0  0  0  0  0  0  0  0  0  0  0
    2.6081   -1.6857    3.7748 C   0  0  2  0  0  0  0  0  0  0  0  0
   -0.9258   -0.6149    0.5017 C   0  0  0  0  0  0  0  0  0  0  0  0
    1.9059   -0.4034    1.8025 C   0  0  0  0  0  0  0  0  0  0  0  0
   -1.9742   -1.0904   -0.4946 C   0  0  0  0  0  0  0  0  0  0  0  0
    3.0205   -0.5202    2.8544 C   0  0  0  0  0  0  0  0  0  0  0  0
   -1.6683   -4.2286   -0.4362 C   0  0  0  0  0  0  0  0  0  0  0  0
   -2.4182   -2.3872   -2.6319 C   0  0  0  0  0  0  0  0  0  0  0  0
    0.6735   -3.3673    3.8885 C   0  0  0  0  0  0  0  0  0  0  0  0
    0.2266   -3.9256   -2.1191 C   0  0  0  0  0  0  0  0  0  0  0  0
   -2.7214   -4.6220   -1.4923 C   0  0  0  0  0  0  0  0  0  0  0  0
   -3.4417   -3.3821   -2.0507 C   0  0  2  0  0  0  0  0  0  0  0  0
    3.7965   -2.3396    4.4642 C   0  0  0  0  0  0  0  0  0  0  0  0
    4.2617   -3.7796    4.4021 C   0  0  0  0  0  0  0  0  0  0  0  0
    4.6138   -1.6602    5.2607 C   0  0  0  0  0  0  0  0  0  0  0  0
   -5.6505   -3.9816   -2.6359 C   0  0  2  0  0  0  0  0  0  0  0  0
    5.5951   -2.6023    5.7317 C   0  0  0  0  0  0  0  0  0  0  0  0
   -6.4329   -2.6266   -2.7384 C   0  0  0  0  0  0  0  0  0  0  0  0
   -6.7187   -2.3802   -4.2222 C   0  0  1  0  0  0  0  0  0  0  0  0
   -7.5051   -4.8127   -3.8637 C   0  0  1  0  0  0  0  0  0  0  0  0
   -7.5907   -3.5477   -4.7804 C   0  0  2  0  0  0  0  0  0  0  0  0
   -8.1047   -6.0652   -4.4986 C   0  0  0  0  0  0  0  0  0  0  0  0
   -6.1018   -4.0974   -6.5905 C   0  0  2  0  0  0  0  0  0  0  0  0
   -6.1241   -5.1341   -7.7310 C   0  0  0  0  0  0  0  0  0  0  0  0
   -6.6796   -4.5090   -9.0118 C   0  0  1  0  0  0  0  0  0  0  0  0
   -5.8062   -2.3036   -8.1666 C   0  0  1  0  0  0  0  0  0  0  0  0
   -5.8165   -3.2872   -9.3593 C   0  0  1  0  0  0  0  0  0  0  0  0
   -7.1221   -1.5221   -8.0013 C   0  0  0  0  0  0  0  0  0  0  0  0
   -3.8924   -3.0314  -10.6873 C   0  0  2  0  0  0  0  0  0  0  0  0
   -2.3477   -3.1794  -10.5310 C   0  0  0  0  0  0  0  0  0  0  0  0
   -1.9784   -4.5717  -11.0347 C   0  0  1  0  0  0  0  0  0  0  0  0
   -3.4513   -3.6663  -12.9254 C   0  0  1  0  0  0  0  0  0  0  0  0
   -2.3320   -4.6773  -12.5449 C   0  0  1  0  0  0  0  0  0  0  0  0
   -4.1152   -4.0446  -14.2479 C   0  0  0  0  0  0  0  0  0  0  0  0
   -1.0294   -2.3985    1.7223 H   0  0  0  0  0  0  0  0  0  0  0  0
    1.1855   -2.1341   -0.4033 H   0  0  0  0  0  0  0  0  0  0  0  0
   -0.5929   -1.3323   -2.1135 H   0  0  0  0  0  0  0  0  0  0  0  0
    1.7149   -4.5308    0.1116 H   0  0  0  0  0  0  0  0  0  0  0  0
    0.4380   -4.5648    1.3566 H   0  0  0  0  0  0  0  0  0  0  0  0
    2.6842   -4.2786    2.3021 H   0  0  0  0  0  0  0  0  0  0  0  0
    2.9815   -2.8525    1.2844 H   0  0  0  0  0  0  0  0  0  0  0  0
    2.0146   -1.2204    4.5967 H   0  0  0  0  0  0  0  0  0  0  0  0
   -0.1688    0.0018   -0.0300 H   0  0  0  0  0  0  0  0  0  0  0  0
   -1.4401    0.0285    1.2456 H   0  0  0  0  0  0  0  0  0  0  0  0
    2.3253   -0.8197    0.8685 H   0  0  0  0  0  0  0  0  0  0  0  0
    1.6273    0.6401    1.5432 H   0  0  0  0  0  0  0  0  0  0  0  0
   -2.4443   -0.1989   -0.9646 H   0  0  0  0  0  0  0  0  0  0  0  0
   -2.7625   -1.6226    0.0721 H   0  0  0  0  0  0  0  0  0  0  0  0
    3.1419    0.4004    3.4660 H   0  0  0  0  0  0  0  0  0  0  0  0
    3.9755   -0.7199    2.3180 H   0  0  0  0  0  0  0  0  0  0  0  0
   -2.2104   -3.7868    0.4225 H   0  0  0  0  0  0  0  0  0  0  0  0
   -1.1839   -5.1589   -0.0741 H   0  0  0  0  0  0  0  0  0  0  0  0
   -2.9449   -1.4839   -3.0107 H   0  0  0  0  0  0  0  0  0  0  0  0
   -1.9345   -2.8496   -3.5153 H   0  0  0  0  0  0  0  0  0  0  0  0
    1.2719   -4.1662    4.3675 H   0  0  0  0  0  0  0  0  0  0  0  0
    0.2238   -2.7572    4.6997 H   0  0  0  0  0  0  0  0  0  0  0  0
   -0.1642   -3.8490    3.3491 H   0  0  0  0  0  0  0  0  0  0  0  0
   -0.3759   -4.2439   -2.9869 H   0  0  0  0  0  0  0  0  0  0  0  0
    1.0073   -3.2389   -2.5104 H   0  0  0  0  0  0  0  0  0  0  0  0
    0.7183   -4.8498   -1.7606 H   0  0  0  0  0  0  0  0  0  0  0  0
   -3.4629   -5.3082   -1.0300 H   0  0  0  0  0  0  0  0  0  0  0  0
   -2.2432   -5.1804   -2.3225 H   0  0  0  0  0  0  0  0  0  0  0  0
   -3.9791   -2.8667   -1.2241 H   0  0  0  0  0  0  0  0  0  0  0  0
   -0.1134    0.2896    3.0491 H   0  0  0  0  0  0  0  0  0  0  0  0
    4.5704   -4.0538    3.3737 H   0  0  0  0  0  0  0  0  0  0  0  0
    3.4865   -4.4732    4.7834 H   0  0  0  0  0  0  0  0  0  0  0  0
    4.5458   -0.6086    5.5087 H   0  0  0  0  0  0  0  0  0  0  0  0
   -5.6674   -4.3192   -1.5730 H   0  0  0  0  0  0  0  0  0  0  0  0
   -7.3962   -2.6778   -2.1859 H   0  0  0  0  0  0  0  0  0  0  0  0
   -5.8430   -1.8004   -2.2867 H   0  0  0  0  0  0  0  0  0  0  0  0
   -5.7126   -2.3649   -4.6790 H   0  0  0  0  0  0  0  0  0  0  0  0
   -8.1237   -4.6394   -2.9515 H   0  0  0  0  0  0  0  0  0  0  0  0
   -8.6580   -3.2550   -4.6659 H   0  0  0  0  0  0  0  0  0  0  0  0
   -8.0793   -6.9030   -3.7698 H   0  0  0  0  0  0  0  0  0  0  0  0
   -7.5269   -6.3719   -5.3886 H   0  0  0  0  0  0  0  0  0  0  0  0
   -9.1603   -5.8808   -4.7910 H   0  0  0  0  0  0  0  0  0  0  0  0
   -8.1258   -1.0721   -3.8985 H   0  0  0  0  0  0  0  0  0  0  0  0
   -5.5477   -4.6033   -5.7725 H   0  0  0  0  0  0  0  0  0  0  0  0
   -5.0831   -5.4813   -7.9153 H   0  0  0  0  0  0  0  0  0  0  0  0
   -6.7239   -6.0229   -7.4500 H   0  0  0  0  0  0  0  0  0  0  0  0
   -7.7375   -4.2129   -8.8280 H   0  0  0  0  0  0  0  0  0  0  0  0
   -5.0538   -1.5224   -8.4094 H   0  0  0  0  0  0  0  0  0  0  0  0
   -6.2677   -2.7944  -10.2553 H   0  0  0  0  0  0  0  0  0  0  0  0
   -7.0223   -0.7949   -7.1690 H   0  0  0  0  0  0  0  0  0  0  0  0
   -7.3351   -0.9533   -8.9314 H   0  0  0  0  0  0  0  0  0  0  0  0
   -7.9985   -2.1673   -7.8095 H   0  0  0  0  0  0  0  0  0  0  0  0
   -7.1952   -5.0933  -10.7864 H   0  0  0  0  0  0  0  0  0  0  0  0
   -4.1119   -1.9406  -10.6141 H   0  0  0  0  0  0  0  0  0  0  0  0
   -1.8030   -2.4279  -11.1444 H   0  0  0  0  0  0  0  0  0  0  0  0
   -2.0577   -3.0148   -9.4701 H   0  0  0  0  0  0  0  0  0  0  0  0
   -2.6113   -5.2769  -10.4439 H   0  0  0  0  0  0  0  0  0  0  0  0
   -3.0154   -2.6495  -13.0719 H   0  0  0  0  0  0  0  0  0  0  0  0
   -2.6714   -5.7267  -12.7200 H   0  0  0  0  0  0  0  0  0  0  0  0
   -3.3630   -4.0710  -15.0648 H   0  0  0  0  0  0  0  0  0  0  0  0
   -4.5973   -5.0421  -14.1662 H   0  0  0  0  0  0  0  0  0  0  0  0
   -4.8924   -3.2946  -14.5070 H   0  0  0  0  0  0  0  0  0  0  0  0
   -0.5218   -5.8368  -10.8716 H   0  0  0  0  0  0  0  0  0  0  0  0
   -0.7225   -5.2437  -13.4821 H   0  0  0  0  0  0  0  0  0  0  0  0
  1 84  1  0  0  0  0
  3 34  1  0  0  0  0
  3 37  1  0  0  0  0
  4 36  1  0  0  0  0
  4 40  1  0  0  0  0
  5 37  2  0  0  0  0
  6 97  1  0  0  0  0
  8 43  1  0  0  0  0
  8 46  1  0  0  0  0
 10107  1  0  0  0  0
 11 49  1  0  0  0  0
 11 52  1  0  0  0  0
 12117  1  0  0  0  0
 13118  1  0  0  0  0
 14 15  1  6  0  0  0
 14 24  1  0  0  0  0
 14  1  1  0  0  0  0
 15 16  1  6  0  0  0
 15 23  1  0  0  0  0
 15 55  1  0  0  0  0
 16 18  1  6  0  0  0
 16 20  1  0  0  0  0
 16 56  1  0  0  0  0
 17 14  1  6  0  0  0
 17 21  1  0  0  0  0
 17 29  1  0  0  0  0
 18 19  1  6  0  0  0
 18 27  1  0  0  0  0
 18 30  1  0  0  0  0
 19 25  1  0  0  0  0
 19 28  1  0  0  0  0
 19 57  1  6  0  0  0
 20 21  1  0  0  0  0
 20 58  1  0  0  0  0
 20 59  1  0  0  0  0
 21 60  1  0  0  0  0
 21 61  1  0  0  0  0
 22 17  1  6  0  0  0
 22 26  1  0  0  0  0
 22 33  1  0  0  0  0
 22 62  1  0  0  0  0
 23 25  1  0  0  0  0
 23 63  1  0  0  0  0
 23 64  1  0  0  0  0
 24 26  1  0  0  0  0
 24 65  1  0  0  0  0
 24 66  1  0  0  0  0
 25 67  1  0  0  0  0
 25 68  1  0  0  0  0
 26 69  1  0  0  0  0
 26 70  1  0  0  0  0
 27 31  1  0  0  0  0
 27 71  1  0  0  0  0
 27 72  1  0  0  0  0
 28 32  1  0  0  0  0
 28 73  1  0  0  0  0
 28 74  1  0  0  0  0
 29 75  1  0  0  0  0
 29 76  1  0  0  0  0
 29 77  1  0  0  0  0
 30 78  1  0  0  0  0
 30 79  1  0  0  0  0
 30 80  1  0  0  0  0
 31 32  1  0  0  0  0
 31 81  1  0  0  0  0
 31 82  1  0  0  0  0
 32  2  1  0  0  0  0
 32 83  1  1  0  0  0
 33 34  1  0  0  0  0
 33 35  2  0  0  0  0
 34 85  1  0  0  0  0
 34 86  1  0  0  0  0
 35 37  1  0  0  0  0
 35 87  1  0  0  0  0
 36  2  1  0  0  0  0
 36 38  1  0  0  0  0
 36 88  1  1  0  0  0
 38 39  1  0  0  0  0
 38 89  1  0  0  0  0
 38 90  1  0  0  0  0
 39  6  1  0  0  0  0
 39 41  1  6  0  0  0
 39 91  1  0  0  0  0
 40 41  1  6  0  0  0
 40 42  1  0  0  0  0
 40 92  1  0  0  0  0
 41  7  1  0  0  0  0
 41 93  1  1  0  0  0
 42 94  1  0  0  0  0
 42 95  1  0  0  0  0
 42 96  1  0  0  0  0
 43  7  1  0  0  0  0
 43 44  1  0  0  0  0
 43 98  1  1  0  0  0
 44 45  1  0  0  0  0
 44 99  1  0  0  0  0
 44100  1  0  0  0  0
 45 10  1  0  0  0  0
 45 47  1  6  0  0  0
 45101  1  0  0  0  0
 46 47  1  6  0  0  0
 46 48  1  0  0  0  0
 46102  1  0  0  0  0
 47  9  1  0  0  0  0
 47103  1  6  0  0  0
 48104  1  0  0  0  0
 48105  1  0  0  0  0
 48106  1  0  0  0  0
 49  9  1  0  0  0  0
 49 50  1  0  0  0  0
 49108  1  1  0  0  0
 50 51  1  0  0  0  0
 50109  1  0  0  0  0
 50110  1  0  0  0  0
 51 12  1  0  0  0  0
 51 53  1  6  0  0  0
 51111  1  0  0  0  0
 52 53  1  1  0  0  0
 52 54  1  0  0  0  0
 52112  1  0  0  0  0
 53 13  1  0  0  0  0
 53113  1  6  0  0  0
 54114  1  0  0  0  0
 54115  1  0  0  0  0
 54116  1  0  0  0  0
M  END
