
 OpenBabel05252300063D

 21 20  0  0  0  0  0  0  0  0999 V2000
    0.0011   -0.9266   -0.0028 S   0  0  0  0  0  0  0  0  0  0  0  0
   -1.3734    0.2826   -0.0917 C   0  0  0  0  0  0  0  0  0  0  0  0
    1.3710    0.2874    0.0936 C   0  0  0  0  0  0  0  0  0  0  0  0
   -1.6894    0.6075   -1.5515 C   0  0  0  0  0  0  0  0  0  0  0  0
   -2.5949   -0.2991    0.6181 C   0  0  0  0  0  0  0  0  0  0  0  0
    1.6858    0.6045    1.5554 C   0  0  0  0  0  0  0  0  0  0  0  0
    2.5947   -0.2852   -0.6198 C   0  0  0  0  0  0  0  0  0  0  0  0
   -1.1013    1.2155    0.4477 H   0  0  0  0  0  0  0  0  0  0  0  0
    1.0953    1.2225   -0.4400 H   0  0  0  0  0  0  0  0  0  0  0  0
   -2.5201    1.3427   -1.6095 H   0  0  0  0  0  0  0  0  0  0  0  0
   -0.7987    1.0482   -2.0464 H   0  0  0  0  0  0  0  0  0  0  0  0
   -1.9837   -0.3124   -2.1007 H   0  0  0  0  0  0  0  0  0  0  0  0
   -3.4357    0.4266    0.5933 H   0  0  0  0  0  0  0  0  0  0  0  0
   -2.3495   -0.5138    1.6801 H   0  0  0  0  0  0  0  0  0  0  0  0
   -2.9196   -1.2420    0.1280 H   0  0  0  0  0  0  0  0  0  0  0  0
    2.5136    1.3425    1.6179 H   0  0  0  0  0  0  0  0  0  0  0  0
    0.7933    1.0386    2.0530 H   0  0  0  0  0  0  0  0  0  0  0  0
    1.9836   -0.3177    2.0989 H   0  0  0  0  0  0  0  0  0  0  0  0
    3.4327    0.4436   -0.5904 H   0  0  0  0  0  0  0  0  0  0  0  0
    2.3502   -0.4943   -1.6830 H   0  0  0  0  0  0  0  0  0  0  0  0
    2.9231   -1.2299   -0.1355 H   0  0  0  0  0  0  0  0  0  0  0  0
  1  2  1  0  0  0  0
  1  3  1  0  0  0  0
  2  4  1  0  0  0  0
  2  5  1  0  0  0  0
  2  8  1  0  0  0  0
  3  6  1  0  0  0  0
  3  7  1  0  0  0  0
  3  9  1  0  0  0  0
  4 10  1  0  0  0  0
  4 11  1  0  0  0  0
  4 12  1  0  0  0  0
  5 13  1  0  0  0  0
  5 14  1  0  0  0  0
  5 15  1  0  0  0  0
  6 16  1  0  0  0  0
  6 17  1  0  0  0  0
  6 18  1  0  0  0  0
  7 19  1  0  0  0  0
  7 20  1  0  0  0  0
  7 21  1  0  0  0  0
M  END
