
 OpenBabel11152118173D

 28 29  0  0  0  0  0  0  0  0999 V2000
   -1.2898   -2.7625   -0.0297 F   0  0  0  0  0  0  0  0  0  0  0  0
    0.9424   -2.9373   -0.0472 F   0  0  0  0  0  0  0  0  0  0  0  0
   -0.1204   -1.8598   -1.7189 F   0  0  0  0  0  0  0  0  0  0  0  0
   -0.0176   -0.7953    0.4657 C   0  0  0  0  0  0  0  0  0  0  0  0
   -1.2321    0.0848    0.2117 C   0  0  0  0  0  0  0  0  0  0  0  0
    1.2609    0.0193    0.2685 C   0  0  0  0  0  0  0  0  0  0  0  0
   -0.1176   -2.1027   -0.3565 C   0  0  0  0  0  0  0  0  0  0  0  0
   -1.4508    0.6816   -1.0460 C   0  0  0  0  0  0  0  0  0  0  0  0
    1.4547    1.1587    1.0760 C   0  0  0  0  0  0  0  0  0  0  0  0
   -2.1560    0.3235    1.2461 C   0  0  0  0  0  0  0  0  0  0  0  0
    2.2608   -0.3098   -0.6744 C   0  0  0  0  0  0  0  0  0  0  0  0
   -2.5697    1.4916   -1.2607 C   0  0  0  0  0  0  0  0  0  0  0  0
    2.6029    1.9441    0.9449 C   0  0  0  0  0  0  0  0  0  0  0  0
   -3.2736    1.1341    1.0256 C   0  0  0  0  0  0  0  0  0  0  0  0
    3.4075    0.4809   -0.8003 C   0  0  0  0  0  0  0  0  0  0  0  0
   -3.4808    1.7169   -0.2265 C   0  0  0  0  0  0  0  0  0  0  0  0
    3.5784    1.6058    0.0071 C   0  0  0  0  0  0  0  0  0  0  0  0
   -0.0196   -1.1215    1.5303 H   0  0  0  0  0  0  0  0  0  0  0  0
   -0.7544    0.5270   -1.8594 H   0  0  0  0  0  0  0  0  0  0  0  0
    0.7114    1.4398    1.8121 H   0  0  0  0  0  0  0  0  0  0  0  0
   -2.0138   -0.1179    2.2246 H   0  0  0  0  0  0  0  0  0  0  0  0
    2.1752   -1.1690   -1.3214 H   0  0  0  0  0  0  0  0  0  0  0  0
   -2.7295    1.9466   -2.2297 H   0  0  0  0  0  0  0  0  0  0  0  0
    2.7360    2.8161    1.5722 H   0  0  0  0  0  0  0  0  0  0  0  0
   -3.9795    1.3109    1.8268 H   0  0  0  0  0  0  0  0  0  0  0  0
    4.1662    0.2196   -1.5269 H   0  0  0  0  0  0  0  0  0  0  0  0
   -4.3462    2.3446   -0.3948 H   0  0  0  0  0  0  0  0  0  0  0  0
    4.4675    2.2149   -0.0935 H   0  0  0  0  0  0  0  0  0  0  0  0
  1  7  1  0  0  0  0
  2  7  1  0  0  0  0
  3  7  1  0  0  0  0
  4  5  1  0  0  0  0
  4  6  1  0  0  0  0
  4  7  1  0  0  0  0
  4 18  1  0  0  0  0
  5  8  2  0  0  0  0
  5 10  1  0  0  0  0
  6  9  2  0  0  0  0
  6 11  1  0  0  0  0
  8 12  1  0  0  0  0
  8 19  1  0  0  0  0
  9 13  1  0  0  0  0
  9 20  1  0  0  0  0
 10 14  2  0  0  0  0
 10 21  1  0  0  0  0
 11 15  2  0  0  0  0
 11 22  1  0  0  0  0
 12 16  2  0  0  0  0
 12 23  1  0  0  0  0
 13 17  2  0  0  0  0
 13 24  1  0  0  0  0
 14 16  1  0  0  0  0
 14 25  1  0  0  0  0
 15 17  1  0  0  0  0
 15 26  1  0  0  0  0
 16 27  1  0  0  0  0
 17 28  1  0  0  0  0
M  END
