
 OpenBabel06172410053D

 28 31  0  0  0  0  0  0  0  0999 V2000
   -0.9662    2.3216    0.0191 O   0  0  0  0  0  0  0  0  0  0  0  0
    0.9884   -2.3273   -0.0120 O   0  0  0  0  0  0  0  0  0  0  0  0
   -3.7286    1.9750    0.0135 O   0  0  0  0  0  0  0  0  0  0  0  0
    3.7439   -1.9893    0.0338 O   0  0  0  0  0  0  0  0  0  0  0  0
   -4.8362   -0.4886   -0.0069 O   0  0  0  0  0  0  0  0  0  0  0  0
    4.8437    0.5509   -0.0821 O   0  0  0  0  0  0  0  0  0  0  0  0
    0.8741    3.6919    0.0390 O   0  0  0  0  0  0  0  0  0  0  0  0
   -0.8560   -3.6931   -0.0181 O   0  0  0  0  0  0  0  0  0  0  0  0
   -0.7010   -0.0900   -0.0039 C   0  0  0  0  0  0  0  0  0  0  0  0
    0.7230    0.0861   -0.0036 C   0  0  0  0  0  0  0  0  0  0  0  0
   -1.2667   -1.3672   -0.0127 C   0  0  0  0  0  0  0  0  0  0  0  0
    1.2884    1.3635    0.0135 C   0  0  0  0  0  0  0  0  0  0  0  0
   -1.5301    1.0264    0.0058 C   0  0  0  0  0  0  0  0  0  0  0  0
    1.5522   -1.0318   -0.0138 C   0  0  0  0  0  0  0  0  0  0  0  0
   -2.9118    0.8819    0.0043 C   0  0  0  0  0  0  0  0  0  0  0  0
    2.9348   -0.8919   -0.0058 C   0  0  0  0  0  0  0  0  0  0  0  0
   -2.6614   -1.5270   -0.0142 C   0  0  0  0  0  0  0  0  0  0  0  0
    2.6818    1.5165    0.0092 C   0  0  0  0  0  0  0  0  0  0  0  0
    0.4082    2.5600    0.0255 C   0  0  0  0  0  0  0  0  0  0  0  0
   -0.3860   -2.5624   -0.0161 C   0  0  0  0  0  0  0  0  0  0  0  0
   -3.4719   -0.3954   -0.0061 C   0  0  0  0  0  0  0  0  0  0  0  0
    3.4908    0.3846   -0.0170 C   0  0  0  0  0  0  0  0  0  0  0  0
   -3.0910   -2.5256   -0.0209 H   0  0  0  0  0  0  0  0  0  0  0  0
    3.1318    2.5072    0.0075 H   0  0  0  0  0  0  0  0  0  0  0  0
   -4.6394    1.6195    0.0101 H   0  0  0  0  0  0  0  0  0  0  0  0
    4.4508   -1.7954    0.6768 H   0  0  0  0  0  0  0  0  0  0  0  0
   -5.0890   -1.4293   -0.0150 H   0  0  0  0  0  0  0  0  0  0  0  0
    5.1957   -0.1875   -0.6139 H   0  0  0  0  0  0  0  0  0  0  0  0
  1 13  1  0  0  0  0
  1 19  1  0  0  0  0
  2 14  1  0  0  0  0
  2 20  1  0  0  0  0
  3 15  1  0  0  0  0
  3 25  1  0  0  0  0
  4 16  1  0  0  0  0
  4 26  1  0  0  0  0
  5 21  1  0  0  0  0
  5 27  1  0  0  0  0
  6 22  1  0  0  0  0
  6 28  1  0  0  0  0
  7 19  2  0  0  0  0
  8 20  2  0  0  0  0
  9 10  1  0  0  0  0
  9 11  1  0  0  0  0
  9 13  2  0  0  0  0
 10 12  1  0  0  0  0
 10 14  2  0  0  0  0
 11 17  2  0  0  0  0
 11 20  1  0  0  0  0
 12 18  2  0  0  0  0
 12 19  1  0  0  0  0
 13 15  1  0  0  0  0
 14 16  1  0  0  0  0
 15 21  2  0  0  0  0
 16 22  2  0  0  0  0
 17 21  1  0  0  0  0
 17 23  1  0  0  0  0
 18 22  1  0  0  0  0
 18 24  1  0  0  0  0
M  END
