
 OpenBabel09132118253D

 23 23  0  0  0  0  0  0  0  0999 V2000
   -2.7757   -0.6104    1.4024 O   0  0  0  0  0  0  0  0  0  0  0  0
   -1.6853   -2.2145    2.5234 O   0  0  0  0  0  0  0  0  0  0  0  0
    3.3927    0.5286   -0.2957 N   0  0  0  0  0  0  0  0  0  0  0  0
   -0.3299   -0.7963    1.2309 C   0  0  0  0  0  0  0  0  0  0  0  0
   -0.2665    0.3036    0.3569 C   0  0  0  0  0  0  0  0  0  0  0  0
    0.8636   -1.4495    1.5900 C   0  0  0  0  0  0  0  0  0  0  0  0
    2.1479    0.0854    0.2149 C   0  0  0  0  0  0  0  0  0  0  0  0
    0.9628    0.7400   -0.1464 C   0  0  0  0  0  0  0  0  0  0  0  0
    2.0917   -1.0112    1.0855 C   0  0  0  0  0  0  0  0  0  0  0  0
   -1.6364   -1.2564    1.7629 C   0  0  0  0  0  0  0  0  0  0  0  0
   -4.0356   -0.9615    1.8425 C   0  0  0  0  0  0  0  0  0  0  0  0
   -5.0664   -0.0217    1.2367 C   0  0  0  0  0  0  0  0  0  0  0  0
   -1.1660    0.8285    0.0606 H   0  0  0  0  0  0  0  0  0  0  0  0
    0.8494   -2.2995    2.2609 H   0  0  0  0  0  0  0  0  0  0  0  0
    0.9908    1.5888   -0.8182 H   0  0  0  0  0  0  0  0  0  0  0  0
    2.9993   -1.5270    1.3735 H   0  0  0  0  0  0  0  0  0  0  0  0
   -4.2664   -2.0045    1.5334 H   0  0  0  0  0  0  0  0  0  0  0  0
   -4.0822   -0.8885    2.9512 H   0  0  0  0  0  0  0  0  0  0  0  0
   -6.0817   -0.3014    1.5889 H   0  0  0  0  0  0  0  0  0  0  0  0
   -5.0381   -0.0892    0.1284 H   0  0  0  0  0  0  0  0  0  0  0  0
   -4.8542    1.0246    1.5433 H   0  0  0  0  0  0  0  0  0  0  0  0
    4.2684    0.0522   -0.0345 H   0  0  0  0  0  0  0  0  0  0  0  0
    3.4419    1.3343   -0.9364 H   0  0  0  0  0  0  0  0  0  0  0  0
  1 10  1  0  0  0  0
  1 11  1  0  0  0  0
  2 10  2  0  0  0  0
  3  7  1  0  0  0  0
  3 22  1  0  0  0  0
  3 23  1  0  0  0  0
  4  5  2  0  0  0  0
  4  6  1  0  0  0  0
  4 10  1  0  0  0  0
  5  8  1  0  0  0  0
  5 13  1  0  0  0  0
  6  9  2  0  0  0  0
  6 14  1  0  0  0  0
  7  8  2  0  0  0  0
  7  9  1  0  0  0  0
  8 15  1  0  0  0  0
  9 16  1  0  0  0  0
 11 12  1  0  0  0  0
 11 17  1  0  0  0  0
 11 18  1  0  0  0  0
 12 19  1  0  0  0  0
 12 20  1  0  0  0  0
 12 21  1  0  0  0  0
M  END
