
 OpenBabel09072119083D

 22 22  0  0  0  0  0  0  0  0999 V2000
    3.3803    4.9595   -0.1094 O   0  0  0  0  0  0  0  0  0  0  0  0
    4.0493    3.7813   -0.0109 C   0  0  0  0  0  0  0  0  0  0  0  0
    3.5412    2.7474   -0.4250 O   0  0  0  0  0  0  0  0  0  0  0  0
    5.4006    3.7514    0.6014 C   0  0  0  0  0  0  0  0  0  0  0  0
    2.1223    5.0902   -0.6614 C   0  0  0  0  0  0  0  0  0  0  0  0
    5.9903    4.9357    1.0792 C   0  0  0  0  0  0  0  0  0  0  0  0
    6.1129    2.5427    0.7144 C   0  0  0  0  0  0  0  0  0  0  0  0
    1.6897    6.5469   -0.6027 C   0  0  0  0  0  0  0  0  0  0  0  0
    7.2635    4.9109    1.6567 C   0  0  0  0  0  0  0  0  0  0  0  0
    7.3859    2.5215    1.2925 C   0  0  0  0  0  0  0  0  0  0  0  0
    7.9657    3.7026    1.7651 C   0  0  0  0  0  0  0  0  0  0  0  0
    9.1940    3.6645    2.3198 O   0  0  0  0  0  0  0  0  0  0  0  0
    1.3945    4.4701   -0.0934 H   0  0  0  0  0  0  0  0  0  0  0  0
    2.1391    4.7569   -1.7223 H   0  0  0  0  0  0  0  0  0  0  0  0
    5.4694    5.8823    1.0076 H   0  0  0  0  0  0  0  0  0  0  0  0
    5.6875    1.6135    0.3566 H   0  0  0  0  0  0  0  0  0  0  0  0
    0.6776    6.6558   -1.0462 H   0  0  0  0  0  0  0  0  0  0  0  0
    2.4030    7.1791   -1.1731 H   0  0  0  0  0  0  0  0  0  0  0  0
    1.6599    6.8928    0.4524 H   0  0  0  0  0  0  0  0  0  0  0  0
    7.7025    5.8319    2.0193 H   0  0  0  0  0  0  0  0  0  0  0  0
    7.9223    1.5843    1.3728 H   0  0  0  0  0  0  0  0  0  0  0  0
    9.6305    4.4590    2.6589 H   0  0  0  0  0  0  0  0  0  0  0  0
  1  2  1  0  0  0  0
  1  5  1  0  0  0  0
  2  3  2  0  0  0  0
  2  4  1  0  0  0  0
  4  6  2  0  0  0  0
  5  8  1  0  0  0  0
  5 13  1  0  0  0  0
  5 14  1  0  0  0  0
  6  9  1  0  0  0  0
  6 15  1  0  0  0  0
  7  4  1  0  0  0  0
  7 16  1  0  0  0  0
  8 17  1  0  0  0  0
  8 18  1  0  0  0  0
  8 19  1  0  0  0  0
  9 11  2  0  0  0  0
  9 20  1  0  0  0  0
 10  7  2  0  0  0  0
 10 21  1  0  0  0  0
 11 10  1  0  0  0  0
 11 12  1  0  0  0  0
 12 22  1  0  0  0  0
M  END
