
 OpenBabel11142210293D

 20 20  0  0  0  0  0  0  0  0999 V2000
    2.2345   -0.0099   -1.4973 O   0  0  0  0  0  0  0  0  0  0  0  0
    1.4943   -2.1222   -1.3964 O   0  0  0  0  0  0  0  0  0  0  0  0
   -1.5351    1.2808   -0.0680 N   0  0  0  0  0  0  0  0  0  0  0  0
   -0.0507   -0.4853   -0.7264 C   0  0  0  0  0  0  0  0  0  0  0  0
    3.4941   -0.3233   -1.9659 C   0  0  0  0  0  0  0  0  0  0  0  0
    1.2725   -0.9302   -1.2275 C   0  0  0  0  0  0  0  0  0  0  0  0
   -1.0664   -1.4133   -0.4382 C   0  0  0  0  0  0  0  0  0  0  0  0
    4.2995    0.9529   -2.1533 C   0  0  0  0  0  0  0  0  0  0  0  0
   -0.3195    0.8801   -0.5277 C   0  0  0  0  0  0  0  0  0  0  0  0
   -2.3052   -0.9744    0.0326 C   0  0  0  0  0  0  0  0  0  0  0  0
   -2.5232    0.3916    0.2134 C   0  0  0  0  0  0  0  0  0  0  0  0
    4.0158   -0.9803   -1.2358 H   0  0  0  0  0  0  0  0  0  0  0  0
    3.4134   -0.8507   -2.9417 H   0  0  0  0  0  0  0  0  0  0  0  0
   -0.9043   -2.4751   -0.5761 H   0  0  0  0  0  0  0  0  0  0  0  0
    3.7950    1.6170   -2.8870 H   0  0  0  0  0  0  0  0  0  0  0  0
    4.3962    1.4877   -1.1846 H   0  0  0  0  0  0  0  0  0  0  0  0
    5.3138    0.7043   -2.5304 H   0  0  0  0  0  0  0  0  0  0  0  0
    0.4329    1.6293   -0.7365 H   0  0  0  0  0  0  0  0  0  0  0  0
   -3.0891   -1.6867    0.2553 H   0  0  0  0  0  0  0  0  0  0  0  0
   -3.4783    0.7457    0.5776 H   0  0  0  0  0  0  0  0  0  0  0  0
  1  5  1  0  0  0  0
  1  6  1  0  0  0  0
  2  6  2  0  0  0  0
  3  9  1  0  0  0  0
  3 11  2  0  0  0  0
  4  6  1  0  0  0  0
  4  7  1  0  0  0  0
  4  9  2  0  0  0  0
  5  8  1  0  0  0  0
  5 12  1  0  0  0  0
  5 13  1  0  0  0  0
  7 10  2  0  0  0  0
  7 14  1  0  0  0  0
  8 15  1  0  0  0  0
  8 16  1  0  0  0  0
  8 17  1  0  0  0  0
  9 18  1  0  0  0  0
 10 11  1  0  0  0  0
 10 19  1  0  0  0  0
 11 20  1  0  0  0  0
M  END
