
 OpenBabel07272319153D

 14 13  0  0  0  0  0  0  0  0999 V2000
    1.7885    2.2891    1.0305 O   0  0  0  0  0  0  0  0  0  0  0  0
    1.5784    3.5939    1.4280 C   0  0  0  0  0  0  0  0  0  0  0  0
    2.2422    3.8293    2.7759 C   0  0  0  0  0  0  0  0  0  0  0  0
    1.3208    1.7674   -0.1319 C   0  0  0  0  0  0  0  0  0  0  0  0
    1.6059    0.3389   -0.4667 C   0  0  0  0  0  0  0  0  0  0  0  0
    0.6689    2.4495   -0.9101 O   0  0  0  0  0  0  0  0  0  0  0  0
    2.0148    4.2914    0.6797 H   0  0  0  0  0  0  0  0  0  0  0  0
    0.4875    3.7898    1.5194 H   0  0  0  0  0  0  0  0  0  0  0  0
    2.0747    4.8787    3.0982 H   0  0  0  0  0  0  0  0  0  0  0  0
    1.8107    3.1454    3.5374 H   0  0  0  0  0  0  0  0  0  0  0  0
    3.3351    3.6462    2.6993 H   0  0  0  0  0  0  0  0  0  0  0  0
    2.1763    0.2843   -1.4176 H   0  0  0  0  0  0  0  0  0  0  0  0
    2.2048   -0.1342    0.3399 H   0  0  0  0  0  0  0  0  0  0  0  0
    0.6514   -0.2166   -0.5792 H   0  0  0  0  0  0  0  0  0  0  0  0
  1  2  1  0  0  0  0
  1  4  1  0  0  0  0
  2  3  1  0  0  0  0
  2  7  1  0  0  0  0
  2  8  1  0  0  0  0
  3  9  1  0  0  0  0
  3 10  1  0  0  0  0
  3 11  1  0  0  0  0
  4  5  1  0  0  0  0
  4  6  2  0  0  0  0
  5 12  1  0  0  0  0
  5 13  1  0  0  0  0
  5 14  1  0  0  0  0
M  END
