
 OpenBabel05292315473D

 14 13  0  0  0  0  0  0  0  0999 V2000
    2.0155   -0.9372   -0.0023 S   0  0  0  0  0  0  0  0  0  0  0  0
   -0.3268   -0.4071   -0.0027 O   0  0  0  0  0  0  0  0  0  0  0  0
   -1.4431    0.4050   -0.0018 C   0  0  0  0  0  0  0  0  0  0  0  0
   -2.6971   -0.4553   -0.0041 C   0  0  0  0  0  0  0  0  0  0  0  0
    0.9576    0.0354   -0.0012 C   0  0  0  0  0  0  0  0  0  0  0  0
    1.2918    1.5081    0.0016 C   0  0  0  0  0  0  0  0  0  0  0  0
   -1.4456    1.0454    0.9069 H   0  0  0  0  0  0  0  0  0  0  0  0
   -1.4445    1.0487   -0.9082 H   0  0  0  0  0  0  0  0  0  0  0  0
   -3.5976    0.1944   -0.0034 H   0  0  0  0  0  0  0  0  0  0  0  0
   -2.7168   -1.0973   -0.9104 H   0  0  0  0  0  0  0  0  0  0  0  0
   -2.7178   -1.1006    0.8998 H   0  0  0  0  0  0  0  0  0  0  0  0
    2.3885    1.6962    0.0025 H   0  0  0  0  0  0  0  0  0  0  0  0
    0.8627    1.9887   -0.9021 H   0  0  0  0  0  0  0  0  0  0  0  0
    0.8616    1.9856    0.9064 H   0  0  0  0  0  0  0  0  0  0  0  0
  1  5  2  0  0  0  0
  2  3  1  0  0  0  0
  2  5  1  0  0  0  0
  3  4  1  0  0  0  0
  3  7  1  0  0  0  0
  3  8  1  0  0  0  0
  4  9  1  0  0  0  0
  4 10  1  0  0  0  0
  4 11  1  0  0  0  0
  5  6  1  0  0  0  0
  6 12  1  0  0  0  0
  6 13  1  0  0  0  0
  6 14  1  0  0  0  0
M  END
