
 OpenBabel09092110013D

  5  4  0  0  0  0  0  0  0  0999 V2000
    1.7650    1.2480    2.6852 O   0  0  0  0  0  0  0  0  0  0  0  0
    1.0928    0.6321    1.6939 C   0  0  0  0  0  0  0  0  0  0  0  0
    1.6892    0.2480    0.7019 O   0  0  0  0  0  0  0  0  0  0  0  0
    1.3015    1.5563    3.4759 H   0  0  0  0  0  0  0  0  0  0  0  0
    0.0216    0.4756    1.7735 H   0  0  0  0  0  0  0  0  0  0  0  0
  1  2  1  0  0  0  0
  1  4  1  0  0  0  0
  2  3  2  0  0  0  0
  2  5  1  0  0  0  0
M  END
