
 OpenBabel10222213493D

 41 43  0  0  1  0  0  0  0  0999 V2000
    2.1067   -3.1049   -0.6512 Cl  0  0  0  0  0  0  0  0  0  0  0  0
   -0.3073   -1.1845   -0.4424 O   0  0  0  0  0  0  0  0  0  0  0  0
   -1.4535   -0.8678    2.0615 O   0  0  0  0  0  0  0  0  0  0  0  0
   -0.9631    2.1546    0.1559 O   0  0  0  0  0  0  0  0  0  0  0  0
   -5.4053   -0.0694   -0.3850 O   0  0  0  0  0  0  0  0  0  0  0  0
    2.1200    2.7781    0.2109 O   0  0  0  0  0  0  0  0  0  0  0  0
    4.5037   -1.3697   -0.2877 O   0  0  0  0  0  0  0  0  0  0  0  0
   -1.2945   -0.2131   -0.3131 C   0  0  2  0  0  0  0  0  0  0  0  0
   -2.1525   -0.1918   -1.6262 C   0  0  1  0  0  0  0  0  0  0  0  0
   -3.4074    0.6588   -1.4268 C   0  0  0  0  0  0  0  0  0  0  0  0
   -0.4983    1.0510   -0.0794 C   0  0  0  0  0  0  0  0  0  0  0  0
   -2.1306   -0.5050    0.9336 C   0  0  0  0  0  0  0  0  0  0  0  0
   -1.3519    0.2740   -2.8530 C   0  0  0  0  0  0  0  0  0  0  0  0
    0.9083    0.6987   -0.1232 C   0  0  0  0  0  0  0  0  0  0  0  0
    0.9296   -0.6562   -0.3273 C   0  0  0  0  0  0  0  0  0  0  0  0
   -4.1937    0.0557   -0.2990 C   0  0  0  0  0  0  0  0  0  0  0  0
   -3.4841   -0.4025    0.9121 C   0  0  0  0  0  0  0  0  0  0  0  0
    2.0944    1.4380    0.0226 C   0  0  0  0  0  0  0  0  0  0  0  0
    2.1272   -1.3668   -0.3906 C   0  0  0  0  0  0  0  0  0  0  0  0
    3.3121    0.7359   -0.0218 C   0  0  0  0  0  0  0  0  0  0  0  0
    3.3408   -0.6686   -0.2320 C   0  0  0  0  0  0  0  0  0  0  0  0
   -2.0051   -1.1697    3.2898 C   0  0  0  0  0  0  0  0  0  0  0  0
    1.6608    3.6911   -0.7163 C   0  0  0  0  0  0  0  0  0  0  0  0
    5.7720   -0.8441   -0.1548 C   0  0  0  0  0  0  0  0  0  0  0  0
   -2.4950   -1.2322   -1.8336 H   0  0  0  0  0  0  0  0  0  0  0  0
   -4.0344    0.7150   -2.3437 H   0  0  0  0  0  0  0  0  0  0  0  0
   -3.1044    1.6911   -1.1541 H   0  0  0  0  0  0  0  0  0  0  0  0
   -1.0034    1.3213   -2.7300 H   0  0  0  0  0  0  0  0  0  0  0  0
   -0.4705   -0.3828   -3.0100 H   0  0  0  0  0  0  0  0  0  0  0  0
   -1.9868    0.2220   -3.7629 H   0  0  0  0  0  0  0  0  0  0  0  0
   -4.0800   -0.6538    1.7831 H   0  0  0  0  0  0  0  0  0  0  0  0
    4.2308    1.2946    0.0979 H   0  0  0  0  0  0  0  0  0  0  0  0
   -1.1909   -1.4226    3.9994 H   0  0  0  0  0  0  0  0  0  0  0  0
   -2.6820   -2.0459    3.2020 H   0  0  0  0  0  0  0  0  0  0  0  0
   -2.5610   -0.2937    3.6866 H   0  0  0  0  0  0  0  0  0  0  0  0
    0.5948    3.5431   -0.9596 H   0  0  0  0  0  0  0  0  0  0  0  0
    2.2533    3.6036   -1.6518 H   0  0  0  0  0  0  0  0  0  0  0  0
    1.7914    4.7152   -0.3107 H   0  0  0  0  0  0  0  0  0  0  0  0
    5.8887   -0.3700    0.8430 H   0  0  0  0  0  0  0  0  0  0  0  0
    5.9654   -0.1002   -0.9569 H   0  0  0  0  0  0  0  0  0  0  0  0
    6.5146   -1.6630   -0.2460 H   0  0  0  0  0  0  0  0  0  0  0  0
  1 19  1  0  0  0  0
  2  8  1  0  0  0  0
  2 15  1  0  0  0  0
  3 12  1  0  0  0  0
  3 22  1  0  0  0  0
  4 11  2  0  0  0  0
  5 16  2  0  0  0  0
  6 18  1  0  0  0  0
  6 23  1  0  0  0  0
  7 21  1  0  0  0  0
  7 24  1  0  0  0  0
  8  9  1  6  0  0  0
  8 11  1  0  0  0  0
  8 12  1  0  0  0  0
  9 10  1  0  0  0  0
  9 13  1  0  0  0  0
  9 25  1  6  0  0  0
 10 16  1  0  0  0  0
 10 26  1  0  0  0  0
 10 27  1  0  0  0  0
 11 14  1  0  0  0  0
 12 17  2  0  0  0  0
 13 28  1  0  0  0  0
 13 29  1  0  0  0  0
 13 30  1  0  0  0  0
 14 15  2  0  0  0  0
 14 18  1  0  0  0  0
 15 19  1  0  0  0  0
 16 17  1  0  0  0  0
 17 31  1  0  0  0  0
 18 20  2  0  0  0  0
 19 21  2  0  0  0  0
 20 21  1  0  0  0  0
 20 32  1  0  0  0  0
 22 33  1  0  0  0  0
 22 34  1  0  0  0  0
 22 35  1  0  0  0  0
 23 36  1  0  0  0  0
 23 37  1  0  0  0  0
 23 38  1  0  0  0  0
 24 39  1  0  0  0  0
 24 40  1  0  0  0  0
 24 41  1  0  0  0  0
M  END
