
 OpenBabel12272315043D

 27 26  0  0  0  0  0  0  0  0999 V2000
   -2.3671    2.5393    1.4732 N   0  0  0  0  0  0  0  0  0  0  0  0
   -1.2907    1.5836    1.7877 C   0  0  0  0  0  0  0  0  0  0  0  0
   -0.1804    1.5736    0.7263 C   0  0  0  0  0  0  0  0  0  0  0  0
   -0.8672    1.7796    2.7820 H   0  0  0  0  0  0  0  0  0  0  0  0
   -1.6810    0.5599    1.8420 H   0  0  0  0  0  0  0  0  0  0  0  0
   -0.5684    1.1980   -0.2267 H   0  0  0  0  0  0  0  0  0  0  0  0
    0.8783    0.7229    1.1566 O   0  0  0  0  0  0  0  0  0  0  0  0
    0.2392    2.5708    0.5658 H   0  0  0  0  0  0  0  0  0  0  0  0
    1.4819    0.6233    0.4002 H   0  0  0  0  0  0  0  0  0  0  0  0
   -1.9828    3.9279    1.8045 C   0  0  0  0  0  0  0  0  0  0  0  0
   -3.6232    2.1603    2.1586 C   0  0  0  0  0  0  0  0  0  0  0  0
   -2.5861    4.9694    0.4593 P   0  0  0  0  0  0  0  0  0  0  0  0
   -0.8982    4.0696    1.8559 H   0  0  0  0  0  0  0  0  0  0  0  0
   -2.3955    4.2507    2.7667 H   0  0  0  0  0  0  0  0  0  0  0  0
   -4.0308    4.4013    0.0128 O   0  0  0  0  0  0  0  0  0  0  0  0
   -1.7269    4.5828   -0.8390 O   0  0  0  0  0  0  0  0  0  0  0  0
   -4.4973    1.0257    1.0499 P   0  0  0  0  0  0  0  0  0  0  0  0
   -3.4564    1.7209    3.1480 H   0  0  0  0  0  0  0  0  0  0  0  0
   -4.2806    3.0278    2.2864 H   0  0  0  0  0  0  0  0  0  0  0  0
   -4.5048    5.0589   -0.5380 H   0  0  0  0  0  0  0  0  0  0  0  0
   -1.8303    5.2136   -1.5750 H   0  0  0  0  0  0  0  0  0  0  0  0
   -4.6788    1.8463   -0.3205 O   0  0  0  0  0  0  0  0  0  0  0  0
   -4.2999    2.7559   -0.2517 H   0  0  0  0  0  0  0  0  0  0  0  0
   -6.0100    1.0305    1.5876 O   0  0  0  0  0  0  0  0  0  0  0  0
   -6.5472    0.3949    1.0767 H   0  0  0  0  0  0  0  0  0  0  0  0
   -3.9392   -0.3473    0.8754 O   0  0  0  0  0  0  0  0  0  0  0  0
   -2.6288    6.4441    0.6746 O   0  0  0  0  0  0  0  0  0  0  0  0
  1  2  1  0  0  0  0
  1 10  1  0  0  0  0
  1 11  1  0  0  0  0
  2  3  1  0  0  0  0
  2  4  1  0  0  0  0
  2  5  1  0  0  0  0
  3  6  1  0  0  0  0
  3  7  1  0  0  0  0
  3  8  1  0  0  0  0
  7  9  1  0  0  0  0
 10 12  1  0  0  0  0
 10 13  1  0  0  0  0
 10 14  1  0  0  0  0
 11 17  1  0  0  0  0
 11 18  1  0  0  0  0
 11 19  1  0  0  0  0
 12 15  1  0  0  0  0
 12 16  1  0  0  0  0
 12 27  2  0  0  0  0
 15 20  1  0  0  0  0
 16 21  1  0  0  0  0
 17 22  1  0  0  0  0
 17 24  1  0  0  0  0
 17 26  2  0  0  0  0
 22 23  1  0  0  0  0
 24 25  1  0  0  0  0
M  END
