
 OpenBabel05302315183D

 14 13  0  0  0  0  0  0  0  0999 V2000
   -0.2515    0.8943    1.6154 F   0  0  0  0  0  0  0  0  0  0  0  0
   -1.1318    1.8291   -0.2223 F   0  0  0  0  0  0  0  0  0  0  0  0
    0.6228    0.4263   -1.8410 F   0  0  0  0  0  0  0  0  0  0  0  0
    1.6020    1.7076   -0.2847 F   0  0  0  0  0  0  0  0  0  0  0  0
   -0.8691   -1.6532    0.6111 F   0  0  0  0  0  0  0  0  0  0  0  0
   -1.7200   -0.7046   -1.2481 F   0  0  0  0  0  0  0  0  0  0  0  0
   -2.6159   -0.2548    0.7612 F   0  0  0  0  0  0  0  0  0  0  0  0
    2.0627   -0.6660    1.3030 O   0  0  0  0  0  0  0  0  0  0  0  0
    1.9875   -1.5110   -0.7563 O   0  0  0  0  0  0  0  0  0  0  0  0
   -0.4888    0.7025    0.2637 C   0  0  0  0  0  0  0  0  0  0  0  0
    0.8587    0.5565   -0.4810 C   0  0  0  0  0  0  0  0  0  0  0  0
   -1.4319   -0.5021    0.0899 C   0  0  0  0  0  0  0  0  0  0  0  0
    1.6720   -0.6136    0.0114 C   0  0  0  0  0  0  0  0  0  0  0  0
    2.5872   -1.4050    1.6424 H   0  0  0  0  0  0  0  0  0  0  0  0
  1 10  1  0  0  0  0
  2 10  1  0  0  0  0
  3 11  1  0  0  0  0
  4 11  1  0  0  0  0
  5 12  1  0  0  0  0
  6 12  1  0  0  0  0
  7 12  1  0  0  0  0
  8 13  1  0  0  0  0
  8 14  1  0  0  0  0
  9 13  2  0  0  0  0
 10 11  1  0  0  0  0
 10 12  1  0  0  0  0
 11 13  1  0  0  0  0
M  END
