  HEXAMETHYLBENZENE.mol	87-85-4
  NIST    07011519363D 1   1.00000  -468.13603
Copyright by the U.S. Sec. Commerce on behalf of U.S.A. All rights reserved.
 30 30  0  0  0  0  0  0  0  0999 V2000
    2.1643    3.1503    3.5270 C    0  0  0  0  0  0  0  0  0  0  0  0
    0.7630    3.5419    3.9619 C    0  0  0  0  0  0  0  0  0  0  0  0
    2.3419    2.2336    2.4725 C    0  0  0  0  0  0  0  0  0  0  0  0
    3.2855    3.7194    4.1614 C    0  0  0  0  0  0  0  0  0  0  0  0
    1.1359    1.5525    1.8497 C    0  0  0  0  0  0  0  0  0  0  0  0
    3.6385    1.9332    2.0117 C    0  0  0  0  0  0  0  0  0  0  0  0
    3.0980    4.6370    5.3567 C    0  0  0  0  0  0  0  0  0  0  0  0
    4.5821    3.4191    3.7006 C    0  0  0  0  0  0  0  0  0  0  0  0
    3.8258    1.0155    0.8165 C    0  0  0  0  0  0  0  0  0  0  0  0
    4.7597    2.5024    2.6461 C    0  0  0  0  0  0  0  0  0  0  0  0
    5.7882    4.1002    4.3233 C    0  0  0  0  0  0  0  0  0  0  0  0
    6.1611    2.1109    2.2113 C    0  0  0  0  0  0  0  0  0  0  0  0
    0.0588    3.5092    3.1266 H    0  0  0  0  0  0  0  0  0  0  0  0
    0.3655    2.8789    4.7445 H    0  0  0  0  0  0  0  0  0  0  0  0
    0.7330    4.5598    4.3584 H    0  0  0  0  0  0  0  0  0  0  0  0
    1.3848    0.5587    1.4692 H    0  0  0  0  0  0  0  0  0  0  0  0
    0.3301    1.4179    2.5759 H    0  0  0  0  0  0  0  0  0  0  0  0
    0.7189    2.1252    1.0081 H    0  0  0  0  0  0  0  0  0  0  0  0
    3.0042    5.6934    5.0644 H    0  0  0  0  0  0  0  0  0  0  0  0
    2.2004    4.3810    5.9252 H    0  0  0  0  0  0  0  0  0  0  0  0
    3.9386    4.5706    6.0520 H    0  0  0  0  0  0  0  0  0  0  0  0
    3.9182   -0.0410    1.1089 H    0  0  0  0  0  0  0  0  0  0  0  0
    2.9856    1.0829    0.1208 H    0  0  0  0  0  0  0  0  0  0  0  0
    4.7239    1.2705    0.2485 H    0  0  0  0  0  0  0  0  0  0  0  0
    6.2057    3.5272    5.1644 H    0  0  0  0  0  0  0  0  0  0  0  0
    6.5936    4.2353    3.5969 H    0  0  0  0  0  0  0  0  0  0  0  0
    5.5392    5.0937    4.7044 H    0  0  0  0  0  0  0  0  0  0  0  0
    6.5586    2.7741    1.4288 H    0  0  0  0  0  0  0  0  0  0  0  0
    6.8652    2.1438    3.0467 H    0  0  0  0  0  0  0  0  0  0  0  0
    6.1913    1.0931    1.8148 H    0  0  0  0  0  0  0  0  0  0  0  0
  1  2  1  0  0  0  0
  1  4  1  0  0  0  0
  2 13  1  0  0  0  0
  2 14  1  0  0  0  0
  2 15  1  0  0  0  0
  3  1  2  0  0  0  0
  3  5  1  0  0  0  0
  4  7  1  0  0  0  0
  4  8  2  0  0  0  0
  5 16  1  0  0  0  0
  5 17  1  0  0  0  0
  5 18  1  0  0  0  0
  6  3  1  0  0  0  0
  6  9  1  0  0  0  0
  7 19  1  0  0  0  0
  7 20  1  0  0  0  0
  7 21  1  0  0  0  0
  8 10  1  0  0  0  0
  8 11  1  0  0  0  0
  9 22  1  0  0  0  0
  9 23  1  0  0  0  0
  9 24  1  0  0  0  0
 10  6  2  0  0  0  0
 10 12  1  0  0  0  0
 11 25  1  0  0  0  0
 11 26  1  0  0  0  0
 11 27  1  0  0  0  0
 12 28  1  0  0  0  0
 12 29  1  0  0  0  0
 12 30  1  0  0  0  0
M  END
