
 OpenBabel10232210533D

 40 44  0  0  1  0  0  0  0  0999 V2000
   -1.8603   -0.4762    1.2925 O   0  0  0  0  0  0  0  0  0  0  0  0
   -2.5709   -2.2493   -0.5186 O   0  0  0  0  0  0  0  0  0  0  0  0
   -3.6080    1.8191    0.6258 O   0  0  0  0  0  0  0  0  0  0  0  0
    3.1204    0.1595    0.5109 N   0  0  0  0  0  0  0  0  0  0  0  0
    0.3566   -0.6840    0.6478 C   0  0  1  0  0  0  0  0  0  0  0  0
    1.3533   -1.3257   -0.3503 C   0  0  2  0  0  0  0  0  0  0  0  0
    2.3709   -0.1995   -0.7281 C   0  0  1  0  0  0  0  0  0  0  0  0
   -0.9196   -1.4817    1.0305 C   0  0  2  0  0  0  0  0  0  0  0  0
    1.1362   -0.2562    1.9207 C   0  0  0  0  0  0  0  0  0  0  0  0
   -0.2754    0.4984    0.0635 C   0  0  0  0  0  0  0  0  0  0  0  0
    0.6285   -1.9647   -1.5523 C   0  0  0  0  0  0  0  0  0  0  0  0
    1.6613    1.0405   -1.4142 C   0  0  0  0  0  0  0  0  0  0  0  0
    2.2739    0.7170    1.5811 C   0  0  0  0  0  0  0  0  0  0  0  0
    0.2900    1.3710   -0.8468 C   0  0  0  0  0  0  0  0  0  0  0  0
   -0.3927   -2.9945   -1.0412 C   0  0  0  0  0  0  0  0  0  0  0  0
   -1.3974   -2.2816   -0.1767 C   0  0  0  0  0  0  0  0  0  0  0  0
   -1.5434    0.6012    0.5367 C   0  0  0  0  0  0  0  0  0  0  0  0
    4.2985    1.0065    0.2643 C   0  0  0  0  0  0  0  0  0  0  0  0
   -0.4981    2.4631   -1.2583 C   0  0  0  0  0  0  0  0  0  0  0  0
   -2.3473    1.6849    0.1690 C   0  0  0  0  0  0  0  0  0  0  0  0
   -1.8053    2.6310   -0.7329 C   0  0  0  0  0  0  0  0  0  0  0  0
    1.8963   -2.1557    0.1575 H   0  0  0  0  0  0  0  0  0  0  0  0
    3.1118   -0.6137   -1.4478 H   0  0  0  0  0  0  0  0  0  0  0  0
   -0.7356   -2.1791    1.8759 H   0  0  0  0  0  0  0  0  0  0  0  0
    1.5711   -1.1683    2.3861 H   0  0  0  0  0  0  0  0  0  0  0  0
    0.4689    0.2205    2.6729 H   0  0  0  0  0  0  0  0  0  0  0  0
    1.3712   -2.4657   -2.2096 H   0  0  0  0  0  0  0  0  0  0  0  0
    0.0951   -1.1983   -2.1552 H   0  0  0  0  0  0  0  0  0  0  0  0
    1.4730    0.7880   -2.4795 H   0  0  0  0  0  0  0  0  0  0  0  0
    2.3240    1.9264   -1.4175 H   0  0  0  0  0  0  0  0  0  0  0  0
    1.8634    1.7024    1.2724 H   0  0  0  0  0  0  0  0  0  0  0  0
    2.8725    0.8882    2.5027 H   0  0  0  0  0  0  0  0  0  0  0  0
    0.1163   -3.7858   -0.4497 H   0  0  0  0  0  0  0  0  0  0  0  0
   -0.8985   -3.4734   -1.9078 H   0  0  0  0  0  0  0  0  0  0  0  0
    4.9205    1.0583    1.1833 H   0  0  0  0  0  0  0  0  0  0  0  0
    4.0141    2.0424   -0.0133 H   0  0  0  0  0  0  0  0  0  0  0  0
    4.9327    0.5682   -0.5355 H   0  0  0  0  0  0  0  0  0  0  0  0
   -0.1118    3.1715   -1.9797 H   0  0  0  0  0  0  0  0  0  0  0  0
   -2.4040    3.4742   -1.0527 H   0  0  0  0  0  0  0  0  0  0  0  0
   -4.0030    1.1790    1.2346 H   0  0  0  0  0  0  0  0  0  0  0  0
  1  8  1  0  0  0  0
  1 17  1  0  0  0  0
  2 16  2  0  0  0  0
  3 20  1  0  0  0  0
  3 40  1  0  0  0  0
  4  7  1  0  0  0  0
  4 13  1  0  0  0  0
  4 18  1  0  0  0  0
  5  6  1  6  0  0  0
  5  9  1  0  0  0  0
  5 10  1  0  0  0  0
  6  7  1  6  0  0  0
  6 11  1  0  0  0  0
  6 22  1  0  0  0  0
  7 12  1  0  0  0  0
  7 23  1  6  0  0  0
  8  5  1  6  0  0  0
  8 16  1  0  0  0  0
  8 24  1  0  0  0  0
  9 13  1  0  0  0  0
  9 25  1  0  0  0  0
  9 26  1  0  0  0  0
 10 14  2  0  0  0  0
 10 17  1  0  0  0  0
 11 15  1  0  0  0  0
 11 27  1  0  0  0  0
 11 28  1  0  0  0  0
 12 14  1  0  0  0  0
 12 29  1  0  0  0  0
 12 30  1  0  0  0  0
 13 31  1  0  0  0  0
 13 32  1  0  0  0  0
 14 19  1  0  0  0  0
 15 16  1  0  0  0  0
 15 33  1  0  0  0  0
 15 34  1  0  0  0  0
 17 20  2  0  0  0  0
 18 35  1  0  0  0  0
 18 36  1  0  0  0  0
 18 37  1  0  0  0  0
 19 21  2  0  0  0  0
 19 38  1  0  0  0  0
 20 21  1  0  0  0  0
 21 39  1  0  0  0  0
M  END
