
 OpenBabel05232311433D

 26 27  0  0  0  0  0  0  0  0999 V2000
   -3.5969    0.4184    0.0820 O   0  0  0  0  0  0  0  0  0  0  0  0
    0.2159   -1.9880   -2.5411 O   0  0  0  0  0  0  0  0  0  0  0  0
   -3.4575    3.1295   -3.4099 O   0  0  0  0  0  0  0  0  0  0  0  0
    0.0714   -4.7034    0.9473 O   0  0  0  0  0  0  0  0  0  0  0  0
   -3.5124    1.7533   -1.6608 N   0  0  0  0  0  0  0  0  0  0  0  0
    0.1286   -3.3252   -0.8002 N   0  0  0  0  0  0  0  0  0  0  0  0
   -1.4052    1.7761   -4.7535 N   0  0  0  0  0  0  0  0  0  0  0  0
   -1.9822   -3.3511    2.2900 N   0  0  0  0  0  0  0  0  0  0  0  0
   -1.9485   -0.2155   -1.5479 C   0  0  0  0  0  0  0  0  0  0  0  0
   -1.4350   -1.3561   -0.9128 C   0  0  0  0  0  0  0  0  0  0  0  0
   -1.4365    0.2723   -2.8834 C   0  0  0  0  0  0  0  0  0  0  0  0
   -1.9481   -1.8449    0.4218 C   0  0  0  0  0  0  0  0  0  0  0  0
   -3.0648    0.6596   -0.9853 C   0  0  0  0  0  0  0  0  0  0  0  0
   -0.3180   -2.2307   -1.4750 C   0  0  0  0  0  0  0  0  0  0  0  0
   -1.9274    1.3643   -3.4941 C   0  0  0  0  0  0  0  0  0  0  0  0
   -1.4582   -2.9378    1.0318 C   0  0  0  0  0  0  0  0  0  0  0  0
   -3.0090    2.1360   -2.8570 C   0  0  0  0  0  0  0  0  0  0  0  0
   -0.3762   -3.7091    0.3950 C   0  0  0  0  0  0  0  0  0  0  0  0
   -0.6555   -0.2138   -3.4302 H   0  0  0  0  0  0  0  0  0  0  0  0
   -2.7298   -1.3594    0.9681 H   0  0  0  0  0  0  0  0  0  0  0  0
   -4.2701    2.3187   -1.2442 H   0  0  0  0  0  0  0  0  0  0  0  0
    0.8868   -3.8902   -1.2164 H   0  0  0  0  0  0  0  0  0  0  0  0
   -1.7739    2.6112   -5.2308 H   0  0  0  0  0  0  0  0  0  0  0  0
   -0.6488    1.2495   -5.2153 H   0  0  0  0  0  0  0  0  0  0  0  0
   -1.6147   -4.1871    2.7665 H   0  0  0  0  0  0  0  0  0  0  0  0
   -2.7392   -2.8250    2.7514 H   0  0  0  0  0  0  0  0  0  0  0  0
  1 13  2  0  0  0  0
  2 14  2  0  0  0  0
  3 17  2  0  0  0  0
  4 18  2  0  0  0  0
  5 13  1  0  0  0  0
  5 17  1  0  0  0  0
  5 21  1  0  0  0  0
  6 14  1  0  0  0  0
  6 18  1  0  0  0  0
  6 22  1  0  0  0  0
  7 15  1  0  0  0  0
  7 23  1  0  0  0  0
  7 24  1  0  0  0  0
  8 16  1  0  0  0  0
  8 25  1  0  0  0  0
  8 26  1  0  0  0  0
  9 10  2  0  0  0  0
  9 11  1  0  0  0  0
  9 13  1  0  0  0  0
 10 12  1  0  0  0  0
 10 14  1  0  0  0  0
 11 15  2  0  0  0  0
 11 19  1  0  0  0  0
 12 16  2  0  0  0  0
 12 20  1  0  0  0  0
 15 17  1  0  0  0  0
 16 18  1  0  0  0  0
M  END
