
 OpenBabel06222310183D

 23 22  0  0  0  0  0  0  0  0999 V2000
    5.6403   -1.4538   -0.1293 C   0  0  0  0  0  0  0  0  0  0  0  0
    5.2415   -0.0356   -0.5393 C   0  0  0  0  0  0  0  0  0  0  0  0
   -0.4181    1.0926    1.3151 H   0  0  0  0  0  0  0  0  0  0  0  0
    1.5596    0.1905    0.3337 O   0  0  0  0  0  0  0  0  0  0  0  0
    6.1207    1.9545   -0.5195 H   0  0  0  0  0  0  0  0  0  0  0  0
    4.9072   -2.1893   -0.4741 H   0  0  0  0  0  0  0  0  0  0  0  0
    6.6052   -1.7282   -0.5694 H   0  0  0  0  0  0  0  0  0  0  0  0
    5.7281   -1.5427    0.9588 H   0  0  0  0  0  0  0  0  0  0  0  0
    3.9350    0.4217    0.1293 C   0  0  0  0  0  0  0  0  0  0  0  0
    6.5582    0.9642    0.8843 H   0  0  0  0  0  0  0  0  0  0  0  0
    7.3009    0.6495   -0.6942 H   0  0  0  0  0  0  0  0  0  0  0  0
    0.2763   -1.4377   -0.6546 O   0  0  0  0  0  0  0  0  0  0  0  0
   -0.7620    0.2426    0.7184 C   0  0  0  0  0  0  0  0  0  0  0  0
   -1.4533    0.6114   -0.0432 H   0  0  0  0  0  0  0  0  0  0  0  0
   -1.2648   -0.4635    1.3839 H   0  0  0  0  0  0  0  0  0  0  0  0
    0.3906   -0.4438    0.0497 C   0  0  0  0  0  0  0  0  0  0  0  0
    2.8139   -1.4363    0.0895 H   0  0  0  0  0  0  0  0  0  0  0  0
    2.6006   -0.4039   -1.3608 H   0  0  0  0  0  0  0  0  0  0  0  0
    2.7166   -0.4067   -0.2708 C   0  0  0  0  0  0  0  0  0  0  0  0
    4.0386    0.4043    1.2222 H   0  0  0  0  0  0  0  0  0  0  0  0
    3.7398    1.4715   -0.1272 H   0  0  0  0  0  0  0  0  0  0  0  0
    6.3703    0.9389   -0.1945 C   0  0  0  0  0  0  0  0  0  0  0  0
    5.1043   -0.0187   -1.6279 H   0  0  0  0  0  0  0  0  0  0  0  0
  1  2  1  0  0  0  0
  1  6  1  0  0  0  0
  1  7  1  0  0  0  0
  1  8  1  0  0  0  0
  2  9  1  0  0  0  0
  2 22  1  0  0  0  0
  2 23  1  0  0  0  0
  4 19  1  0  0  0  0
  9 19  1  0  0  0  0
  9 20  1  0  0  0  0
  9 21  1  0  0  0  0
 13  3  1  0  0  0  0
 13 14  1  0  0  0  0
 13 15  1  0  0  0  0
 16  4  1  0  0  0  0
 16 13  1  0  0  0  0
 16 12  2  0  0  0  0
 19 18  1  0  0  0  0
 19 17  1  0  0  0  0
 22 10  1  0  0  0  0
 22 11  1  0  0  0  0
 22  5  1  0  0  0  0
M  END
