
 OpenBabel06142413183D

 31 33  0  0  0  0  0  0  0  0999 V2000
   -0.1098   -0.8617    0.0906 O   0  0  0  0  0  0  0  0  0  0  0  0
    0.9768    2.6672   -0.2508 O   0  0  0  0  0  0  0  0  0  0  0  0
   -4.2020    1.7407   -0.1862 O   0  0  0  0  0  0  0  0  0  0  0  0
   -1.8244    2.8092   -0.2854 O   0  0  0  0  0  0  0  0  0  0  0  0
   -4.3140   -2.9849    0.3020 O   0  0  0  0  0  0  0  0  0  0  0  0
    6.1818   -0.8403    0.0261 O   0  0  0  0  0  0  0  0  0  0  0  0
   -2.1100    0.5034   -0.0556 C   0  0  0  0  0  0  0  0  0  0  0  0
   -1.4732   -0.7269    0.0733 C   0  0  0  0  0  0  0  0  0  0  0  0
    0.6704    0.2746   -0.0386 C   0  0  0  0  0  0  0  0  0  0  0  0
   -1.2844    1.7114   -0.1767 C   0  0  0  0  0  0  0  0  0  0  0  0
    0.1936    1.5302   -0.1570 C   0  0  0  0  0  0  0  0  0  0  0  0
    2.1101   -0.0259   -0.0194 C   0  0  0  0  0  0  0  0  0  0  0  0
   -3.5088    0.5661   -0.0645 C   0  0  0  0  0  0  0  0  0  0  0  0
   -2.2263   -1.8950    0.1930 C   0  0  0  0  0  0  0  0  0  0  0  0
   -3.6162   -1.8198    0.1824 C   0  0  0  0  0  0  0  0  0  0  0  0
   -4.2673   -0.5965    0.0543 C   0  0  0  0  0  0  0  0  0  0  0  0
    2.7122   -0.4943    1.1569 C   0  0  0  0  0  0  0  0  0  0  0  0
    2.8932    0.1488   -1.1692 C   0  0  0  0  0  0  0  0  0  0  0  0
    4.0812   -0.7721    1.1889 C   0  0  0  0  0  0  0  0  0  0  0  0
    4.2609   -0.1275   -1.1359 C   0  0  0  0  0  0  0  0  0  0  0  0
    4.8436   -0.5837    0.0407 C   0  0  0  0  0  0  0  0  0  0  0  0
   -1.7359   -2.8594    0.2930 H   0  0  0  0  0  0  0  0  0  0  0  0
   -5.3504   -0.5269    0.0452 H   0  0  0  0  0  0  0  0  0  0  0  0
    2.1175   -0.6457    2.0558 H   0  0  0  0  0  0  0  0  0  0  0  0
    2.4452    0.4930   -2.0995 H   0  0  0  0  0  0  0  0  0  0  0  0
    4.5290   -1.1328    2.1097 H   0  0  0  0  0  0  0  0  0  0  0  0
    4.8692    0.0060   -2.0266 H   0  0  0  0  0  0  0  0  0  0  0  0
    1.9118    2.4251   -0.1424 H   0  0  0  0  0  0  0  0  0  0  0  0
   -3.5487    2.4750   -0.2598 H   0  0  0  0  0  0  0  0  0  0  0  0
   -5.2653   -2.7853    0.2726 H   0  0  0  0  0  0  0  0  0  0  0  0
    6.4471   -1.1759    0.8983 H   0  0  0  0  0  0  0  0  0  0  0  0
  1  8  1  0  0  0  0
  1  9  1  0  0  0  0
  2 11  1  0  0  0  0
  2 28  1  0  0  0  0
  3 13  1  0  0  0  0
  3 29  1  0  0  0  0
  4 10  2  0  0  0  0
  5 15  1  0  0  0  0
  5 30  1  0  0  0  0
  6 21  1  0  0  0  0
  6 31  1  0  0  0  0
  7  8  1  0  0  0  0
  7 10  1  0  0  0  0
  7 13  2  0  0  0  0
  8 14  2  0  0  0  0
  9 11  2  0  0  0  0
  9 12  1  0  0  0  0
 10 11  1  0  0  0  0
 12 17  2  0  0  0  0
 12 18  1  0  0  0  0
 13 16  1  0  0  0  0
 14 15  1  0  0  0  0
 14 22  1  0  0  0  0
 15 16  2  0  0  0  0
 16 23  1  0  0  0  0
 17 19  1  0  0  0  0
 17 24  1  0  0  0  0
 18 20  2  0  0  0  0
 18 25  1  0  0  0  0
 19 21  2  0  0  0  0
 19 26  1  0  0  0  0
 20 21  1  0  0  0  0
 20 27  1  0  0  0  0
M  END
