
 OpenBabel11042216403D

 32 34  0  0  1  0  0  0  0  0999 V2000
   -3.0218    1.8207   -0.1050 O   0  0  0  0  0  0  0  0  0  0  0  0
   -4.9547    0.8229    0.3743 O   0  0  0  0  0  0  0  0  0  0  0  0
    1.9903   -2.0453   -1.4035 O   0  0  0  0  0  0  0  0  0  0  0  0
   -0.8043   -0.6096    0.2976 N   0  0  0  0  0  0  0  0  0  0  0  0
   -3.0330   -0.3873    1.0270 C   0  0  2  0  0  0  0  0  0  0  0  0
   -2.0551   -0.0014    2.1581 C   0  0  0  0  0  0  0  0  0  0  0  0
   -0.7057    0.2570    1.4635 C   0  0  0  0  0  0  0  0  0  0  0  0
   -2.0604   -0.9661    0.0679 C   0  0  0  0  0  0  0  0  0  0  0  0
   -0.0244   -1.1831   -0.6503 C   0  0  0  0  0  0  0  0  0  0  0  0
   -2.1597   -1.7722   -1.0396 C   0  0  0  0  0  0  0  0  0  0  0  0
   -0.8536   -1.9368   -1.4850 C   0  0  0  0  0  0  0  0  0  0  0  0
   -3.7337    0.7941    0.4096 C   0  0  0  0  0  0  0  0  0  0  0  0
    1.4606   -1.1316   -0.7868 C   0  0  0  0  0  0  0  0  0  0  0  0
    2.3469   -0.0734   -0.2259 C   0  0  0  0  0  0  0  0  0  0  0  0
    1.8895    1.2366   -0.0106 C   0  0  0  0  0  0  0  0  0  0  0  0
    3.6988   -0.3659    0.0470 C   0  0  0  0  0  0  0  0  0  0  0  0
    2.7447    2.2187    0.4983 C   0  0  0  0  0  0  0  0  0  0  0  0
    4.5518    0.6166    0.5593 C   0  0  0  0  0  0  0  0  0  0  0  0
    4.0735    1.9073    0.7901 C   0  0  0  0  0  0  0  0  0  0  0  0
   -3.7685   -1.1266    1.4155 H   0  0  0  0  0  0  0  0  0  0  0  0
   -1.8922   -0.9484    2.7250 H   0  0  0  0  0  0  0  0  0  0  0  0
   -2.3996    0.7524    2.8976 H   0  0  0  0  0  0  0  0  0  0  0  0
   -0.6759    1.3151    1.1407 H   0  0  0  0  0  0  0  0  0  0  0  0
    0.1380   -0.0005    2.1394 H   0  0  0  0  0  0  0  0  0  0  0  0
   -3.0581   -2.2026   -1.4608 H   0  0  0  0  0  0  0  0  0  0  0  0
   -0.5444   -2.5322   -2.3342 H   0  0  0  0  0  0  0  0  0  0  0  0
   -3.4567    2.5867   -0.5054 H   0  0  0  0  0  0  0  0  0  0  0  0
    0.8844    1.5158   -0.2709 H   0  0  0  0  0  0  0  0  0  0  0  0
    4.0945   -1.3594   -0.1239 H   0  0  0  0  0  0  0  0  0  0  0  0
    2.3787    3.2251    0.6561 H   0  0  0  0  0  0  0  0  0  0  0  0
    5.5850    0.3768    0.7750 H   0  0  0  0  0  0  0  0  0  0  0  0
    4.7352    2.6686    1.1825 H   0  0  0  0  0  0  0  0  0  0  0  0
  1 12  1  0  0  0  0
  1 27  1  0  0  0  0
  2 12  2  0  0  0  0
  3 13  2  0  0  0  0
  4  7  1  0  0  0  0
  4  8  1  0  0  0  0
  4  9  1  0  0  0  0
  5  6  1  0  0  0  0
  5  8  1  0  0  0  0
  5 12  1  0  0  0  0
  5 20  1  1  0  0  0
  6  7  1  0  0  0  0
  6 21  1  0  0  0  0
  6 22  1  0  0  0  0
  7 23  1  0  0  0  0
  7 24  1  0  0  0  0
  8 10  2  0  0  0  0
  9 11  2  0  0  0  0
  9 13  1  0  0  0  0
 10 11  1  0  0  0  0
 10 25  1  0  0  0  0
 11 26  1  0  0  0  0
 13 14  1  0  0  0  0
 14 15  2  0  0  0  0
 14 16  1  0  0  0  0
 15 17  1  0  0  0  0
 15 28  1  0  0  0  0
 16 18  2  0  0  0  0
 16 29  1  0  0  0  0
 17 19  2  0  0  0  0
 17 30  1  0  0  0  0
 18 19  1  0  0  0  0
 18 31  1  0  0  0  0
 19 32  1  0  0  0  0
M  END
