
 OpenBabel10222214553D

 37 38  0  0  1  0  0  0  0  0999 V2000
    1.0942    2.2977    1.7870 O   0  0  0  0  0  0  0  0  0  0  0  0
    0.8172    3.7405    0.1153 O   0  0  0  0  0  0  0  0  0  0  0  0
    3.4534   -0.1047   -0.9042 O   0  0  0  0  0  0  0  0  0  0  0  0
    1.4602    0.2281    0.0812 N   0  0  0  0  0  0  0  0  0  0  0  0
   -3.3505    1.1539    0.1982 N   0  0  0  0  0  0  0  0  0  0  0  0
    2.9179   -2.9021   -0.3540 N   0  0  0  0  0  0  0  0  0  0  0  0
   -0.0615    1.4105   -1.4862 C   0  0  0  0  0  0  0  0  0  0  0  0
    1.1834    1.5012   -0.5703 C   0  0  1  0  0  0  0  0  0  0  0  0
   -1.3293    1.0039   -0.7807 C   0  0  0  0  0  0  0  0  0  0  0  0
   -1.7264   -0.2652   -0.3940 C   0  0  0  0  0  0  0  0  0  0  0  0
   -2.9555   -0.1311    0.2021 C   0  0  0  0  0  0  0  0  0  0  0  0
   -2.3670    1.8541   -0.4111 C   0  0  0  0  0  0  0  0  0  0  0  0
   -1.1175   -1.5150   -0.5356 C   0  0  0  0  0  0  0  0  0  0  0  0
    1.0150    2.5872    0.4696 C   0  0  0  0  0  0  0  0  0  0  0  0
    2.5949   -0.4977   -0.1256 C   0  0  0  0  0  0  0  0  0  0  0  0
    2.8048   -1.8046    0.6079 C   0  0  2  0  0  0  0  0  0  0  0  0
   -3.6489   -1.2280    0.7121 C   0  0  0  0  0  0  0  0  0  0  0  0
   -1.7947   -2.6393   -0.0311 C   0  0  0  0  0  0  0  0  0  0  0  0
   -3.0531   -2.4963    0.5923 C   0  0  0  0  0  0  0  0  0  0  0  0
    4.0500   -1.7271    1.5000 C   0  0  0  0  0  0  0  0  0  0  0  0
    0.1146    0.7128   -2.3328 H   0  0  0  0  0  0  0  0  0  0  0  0
   -0.2135    2.4175   -1.9333 H   0  0  0  0  0  0  0  0  0  0  0  0
    2.0356    1.8032   -1.2177 H   0  0  0  0  0  0  0  0  0  0  0  0
   -2.3962    2.9242   -0.5703 H   0  0  0  0  0  0  0  0  0  0  0  0
    0.7637   -0.1296    0.7507 H   0  0  0  0  0  0  0  0  0  0  0  0
   -4.2426    1.5383    0.5814 H   0  0  0  0  0  0  0  0  0  0  0  0
   -0.1567   -1.6248   -1.0203 H   0  0  0  0  0  0  0  0  0  0  0  0
    1.9298   -2.0076    1.2645 H   0  0  0  0  0  0  0  0  0  0  0  0
   -4.6170   -1.1097    1.1814 H   0  0  0  0  0  0  0  0  0  0  0  0
   -1.3484   -3.6208   -0.1242 H   0  0  0  0  0  0  0  0  0  0  0  0
   -3.5654   -3.3693    0.9754 H   0  0  0  0  0  0  0  0  0  0  0  0
    3.9368   -0.9058    2.2398 H   0  0  0  0  0  0  0  0  0  0  0  0
    4.9612   -1.5398    0.8923 H   0  0  0  0  0  0  0  0  0  0  0  0
    4.1815   -2.6807    2.0539 H   0  0  0  0  0  0  0  0  0  0  0  0
    2.9999   -3.8097    0.1595 H   0  0  0  0  0  0  0  0  0  0  0  0
    3.7708   -2.7795   -0.9477 H   0  0  0  0  0  0  0  0  0  0  0  0
    0.9929    2.9837    2.4619 H   0  0  0  0  0  0  0  0  0  0  0  0
  1 14  1  0  0  0  0
  1 37  1  0  0  0  0
  2 14  2  0  0  0  0
  3 15  2  0  0  0  0
  4  8  1  0  0  0  0
  4 15  1  0  0  0  0
  4 25  1  0  0  0  0
  5 11  1  0  0  0  0
  5 12  1  0  0  0  0
  5 26  1  0  0  0  0
  6 16  1  0  0  0  0
  6 35  1  0  0  0  0
  6 36  1  0  0  0  0
  7  8  1  0  0  0  0
  7  9  1  0  0  0  0
  7 21  1  0  0  0  0
  7 22  1  0  0  0  0
  8 14  1  0  0  0  0
  8 23  1  6  0  0  0
  9 10  1  0  0  0  0
  9 12  2  0  0  0  0
 10 11  1  0  0  0  0
 10 13  2  0  0  0  0
 11 17  2  0  0  0  0
 12 24  1  0  0  0  0
 13 18  1  0  0  0  0
 13 27  1  0  0  0  0
 15 16  1  0  0  0  0
 16 20  1  0  0  0  0
 16 28  1  1  0  0  0
 17 19  1  0  0  0  0
 17 29  1  0  0  0  0
 18 19  2  0  0  0  0
 18 30  1  0  0  0  0
 19 31  1  0  0  0  0
 20 32  1  0  0  0  0
 20 33  1  0  0  0  0
 20 34  1  0  0  0  0
M  END
