
 OpenBabel04082415153D

 13 12  0  0  1  0  0  0  0  0999 V2000
    1.5534   -0.9077    0.5468 O   0  0  0  0  0  0  0  0  0  0  0  0
    1.1889    0.8136   -0.8254 O   0  0  0  0  0  0  0  0  0  0  0  0
   -1.4233    1.1402    0.2842 N   0  0  0  0  0  0  0  0  0  0  0  0
   -0.7211   -0.1539    0.3942 C   0  0  1  0  0  0  0  0  0  0  0  0
   -1.3864   -1.2038   -0.4859 C   0  0  0  0  0  0  0  0  0  0  0  0
    0.7417    0.0056   -0.0248 C   0  0  0  0  0  0  0  0  0  0  0  0
   -0.7515   -0.4611    1.4450 H   0  0  0  0  0  0  0  0  0  0  0  0
   -0.8699   -2.1662   -0.3999 H   0  0  0  0  0  0  0  0  0  0  0  0
   -2.4316   -1.3575   -0.1970 H   0  0  0  0  0  0  0  0  0  0  0  0
   -1.3625   -0.9146   -1.5430 H   0  0  0  0  0  0  0  0  0  0  0  0
   -2.4301    0.9897    0.2835 H   0  0  0  0  0  0  0  0  0  0  0  0
   -1.1908    1.5593   -0.6195 H   0  0  0  0  0  0  0  0  0  0  0  0
    2.4390   -0.6836    0.1916 H   0  0  0  0  0  0  0  0  0  0  0  0
  1  6  1  0  0  0  0
  1 13  1  0  0  0  0
  2  6  2  0  0  0  0
  3  4  1  0  0  0  0
  3 11  1  0  0  0  0
  3 12  1  0  0  0  0
  4  5  1  0  0  0  0
  4  6  1  0  0  0  0
  4  7  1  1  0  0  0
  5  8  1  0  0  0  0
  5  9  1  0  0  0  0
  5 10  1  0  0  0  0
M  END
