
 OpenBabel09131614363D

 31 31  0  0  1  0  0  0  0  0999 V2000
   -4.8054    2.9855    0.9478 C   0  0  0  0  0  0  0  0  0  0  0  0
   -4.6279    2.3762   -0.4547 C   0  0  0  0  0  0  0  0  0  0  0  0
   -5.0951    2.2094    1.6863 H   0  0  0  0  0  0  0  0  0  0  0  0
   -5.6062    3.7554    0.9271 H   0  0  0  0  0  0  0  0  0  0  0  0
   -3.8821    3.4900    1.2933 H   0  0  0  0  0  0  0  0  0  0  0  0
   -5.9758    1.8226   -0.9461 C   0  0  0  0  0  0  0  0  0  0  0  0
   -6.3840    1.0454   -0.2720 H   0  0  0  0  0  0  0  0  0  0  0  0
   -5.8719    1.4076   -1.9710 H   0  0  0  0  0  0  0  0  0  0  0  0
   -6.7261    2.6413   -0.9858 H   0  0  0  0  0  0  0  0  0  0  0  0
   -3.4616    1.3305   -0.5548 C   0  0  1  0  0  0  0  0  0  0  0  0
   -4.3752    3.2046   -1.1541 H   0  0  0  0  0  0  0  0  0  0  0  0
   -2.0947    2.0303   -0.3379 C   0  0  0  0  0  0  0  0  0  0  0  0
   -0.9295    1.0575   -0.5506 C   0  0  0  0  0  0  0  0  0  0  0  0
   -2.0213    2.4364    0.6927 H   0  0  0  0  0  0  0  0  0  0  0  0
   -1.9833    2.8734   -1.0541 H   0  0  0  0  0  0  0  0  0  0  0  0
   -1.0396   -0.1285    0.4218 C   0  0  1  0  0  0  0  0  0  0  0  0
    0.0280    1.5972   -0.3823 H   0  0  0  0  0  0  0  0  0  0  0  0
   -0.9424    0.6915   -1.6016 H   0  0  0  0  0  0  0  0  0  0  0  0
   -2.3807   -0.8501    0.2047 C   0  0  0  0  0  0  0  0  0  0  0  0
   -3.5705    0.1084    0.4075 C   0  0  2  0  0  0  0  0  0  0  0  0
   -2.4686   -1.6962    0.9213 H   0  0  0  0  0  0  0  0  0  0  0  0
   -2.4179   -1.2651   -0.8278 H   0  0  0  0  0  0  0  0  0  0  0  0
   -3.4622    0.9488   -1.6015 H   0  0  0  0  0  0  0  0  0  0  0  0
    0.1315   -1.0968    0.2238 C   0  0  0  0  0  0  0  0  0  0  0  0
   -0.9989    0.2534    1.4669 H   0  0  0  0  0  0  0  0  0  0  0  0
    1.0948   -0.5733    0.4025 H   0  0  0  0  0  0  0  0  0  0  0  0
    0.1335   -1.5068   -0.8092 H   0  0  0  0  0  0  0  0  0  0  0  0
    0.0562   -1.9401    0.9430 H   0  0  0  0  0  0  0  0  0  0  0  0
   -4.7534   -0.6057    0.1690 O   0  0  0  0  0  0  0  0  0  0  0  0
   -3.5539    0.4848    1.4571 H   0  0  0  0  0  0  0  0  0  0  0  0
   -4.9702   -1.0959    1.0048 H   0  0  0  0  0  0  0  0  0  0  0  0
  1  2  1  0  0  0  0
  1  3  1  0  0  0  0
  1  4  1  0  0  0  0
  1  5  1  0  0  0  0
  2 10  1  0  0  0  0
  2 11  1  0  0  0  0
  6  2  1  0  0  0  0
  6  7  1  0  0  0  0
  6  8  1  0  0  0  0
  6  9  1  0  0  0  0
 10 12  1  0  0  0  0
 10 23  1  6  0  0  0
 12 13  1  0  0  0  0
 12 14  1  0  0  0  0
 12 15  1  0  0  0  0
 13 16  1  0  0  0  0
 13 17  1  0  0  0  0
 13 18  1  0  0  0  0
 16 19  1  0  0  0  0
 16 24  1  0  0  0  0
 16 25  1  1  0  0  0
 19 20  1  0  0  0  0
 19 21  1  0  0  0  0
 19 22  1  0  0  0  0
 20 10  1  0  0  0  0
 20 29  1  0  0  0  0
 20 30  1  1  0  0  0
 24 26  1  0  0  0  0
 24 27  1  0  0  0  0
 24 28  1  0  0  0  0
 29 31  1  0  0  0  0
M  END
