  PROLINE.mol	147-85-3
  NIST    06231415003D 1   1.00000  -401.14818
Copyright by the U.S. Sec. Commerce on behalf of U.S.A. All rights reserved.
 17 17  0  0  0  0  0  0  0  0999 V2000
    1.6491    1.4894   -0.1073 C    0  0  0  0  0  0  0  0  0  0  0  0
    2.2143    1.4775    1.3100 C    0  0  0  0  0  0  0  0  0  0  0  0
    3.5241    1.8203    1.3320 O    0  0  0  0  0  0  0  0  0  0  0  0
    1.6053    1.1642    2.3101 O    0  0  0  0  0  0  0  0  0  0  0  0
    0.1409    1.8819   -0.1357 C    0  0  0  0  0  0  0  0  0  0  0  0
    1.7622    0.0966   -0.6172 N    0  0  0  0  0  0  0  0  0  0  0  0
    0.4027   -0.4685   -0.5452 C    0  0  0  0  0  0  0  0  0  0  0  0
   -0.5492    0.7001   -0.8480 C    0  0  0  0  0  0  0  0  0  0  0  0
    2.2720    2.1508   -0.7150 H    0  0  0  0  0  0  0  0  0  0  0  0
    3.8134    1.7195    2.2588 H    0  0  0  0  0  0  0  0  0  0  0  0
   -0.0189    2.8366   -0.6456 H    0  0  0  0  0  0  0  0  0  0  0  0
   -0.2301    1.9787    0.8885 H    0  0  0  0  0  0  0  0  0  0  0  0
    2.0542    0.1380   -1.5912 H    0  0  0  0  0  0  0  0  0  0  0  0
    0.2334   -0.8424    0.4718 H    0  0  0  0  0  0  0  0  0  0  0  0
    0.3115   -1.3147   -1.2335 H    0  0  0  0  0  0  0  0  0  0  0  0
   -0.5969    0.8725   -1.9313 H    0  0  0  0  0  0  0  0  0  0  0  0
   -1.5714    0.5324   -0.4923 H    0  0  0  0  0  0  0  0  0  0  0  0
  1  2  1  0
  2  3  1  0
  4  2  2  0
  5  1  1  0
  1  6  1  0
  6  7  1  0
  7  8  1  0
  8  5  1  0
  1  9  1  0
  3 10  1  0
  5 11  1  0
  5 12  1  0
  6 13  1  0
  7 14  1  0
  7 15  1  0
  8 16  1  0
  8 17  1  0
M  END
