
 OpenBabel09072118543D

 20 20  0  0  0  0  0  0  0  0999 V2000
    5.9176    5.2255    4.4918 C   0  0  0  0  0  0  0  0  0  0  0  0
    7.0610    4.3918    4.2073 C   0  0  0  0  0  0  0  0  0  0  0  0
    4.8756    4.8678    3.7186 O   0  0  0  0  0  0  0  0  0  0  0  0
    5.8816    6.1354    5.3039 O   0  0  0  0  0  0  0  0  0  0  0  0
    6.6822    3.5423    3.2700 C   0  0  0  0  0  0  0  0  0  0  0  0
    8.2859    4.4580    4.7687 O   0  0  0  0  0  0  0  0  0  0  0  0
    5.2315    3.7967    2.9075 C   0  0  1  0  0  0  0  0  0  0  0  0
    7.4916    2.6090    2.7261 O   0  0  0  0  0  0  0  0  0  0  0  0
    4.3271    2.5819    3.2007 C   0  0  1  0  0  0  0  0  0  0  0  0
    2.0655    1.7859    3.2085 O   0  0  0  0  0  0  0  0  0  0  0  0
    2.8559    2.9045    2.9148 C   0  0  0  0  0  0  0  0  0  0  0  0
    4.7112    1.4931    2.3982 O   0  0  0  0  0  0  0  0  0  0  0  0
    8.4872    5.1144    5.4498 H   0  0  0  0  0  0  0  0  0  0  0  0
    5.1549    4.0892    1.8373 H   0  0  0  0  0  0  0  0  0  0  0  0
    7.1875    2.0272    2.0171 H   0  0  0  0  0  0  0  0  0  0  0  0
    4.4095    2.3248    4.2857 H   0  0  0  0  0  0  0  0  0  0  0  0
    1.1316    2.0447    2.9946 H   0  0  0  0  0  0  0  0  0  0  0  0
    2.7418    3.1725    1.8400 H   0  0  0  0  0  0  0  0  0  0  0  0
    2.5336    3.7591    3.5509 H   0  0  0  0  0  0  0  0  0  0  0  0
    5.1633    0.8333    2.9864 H   0  0  0  0  0  0  0  0  0  0  0  0
  1  4  2  0  0  0  0
  1  3  1  0  0  0  0
  2  6  1  0  0  0  0
  2  1  1  0  0  0  0
  3  7  1  0  0  0  0
  5  8  1  0  0  0  0
  5  2  2  0  0  0  0
  5  7  1  0  0  0  0
  6 13  1  0  0  0  0
  7  9  1  0  0  0  0
  7 14  1  6  0  0  0
  8 15  1  0  0  0  0
  9 11  1  0  0  0  0
  9 12  1  0  0  0  0
  9 16  1  1  0  0  0
 10 11  1  0  0  0  0
 10 17  1  0  0  0  0
 11 18  1  0  0  0  0
 11 19  1  0  0  0  0
 12 20  1  0  0  0  0
M  END
