
 OpenBabel11152118063D

 18 18  0  0  0  0  0  0  0  0999 V2000
   -1.4774    2.6829   -1.9844 Cl  0  0  0  0  0  0  0  0  0  0  0  0
   -2.8667    0.2997   -0.2912 Cl  0  0  0  0  0  0  0  0  0  0  0  0
    1.1744    1.8198   -3.6277 Cl  0  0  0  0  0  0  0  0  0  0  0  0
   -3.0904   -2.5280   -1.8504 Cl  0  0  0  0  0  0  0  0  0  0  0  0
    0.9507   -1.0079   -5.1869 Cl  0  0  0  0  0  0  0  0  0  0  0  0
   -0.4386   -3.3911   -3.4937 Cl  0  0  0  0  0  0  0  0  0  0  0  0
   -0.9233    0.9802   -2.0892 C   0  0  1  0  0  0  0  0  0  0  0  0
   -2.1216    0.0277   -1.8999 C   0  0  1  0  0  0  0  0  0  0  0  0
   -0.2426    0.7345   -3.4512 C   0  0  2  0  0  0  0  0  0  0  0  0
   -1.6733   -1.4427   -2.0268 C   0  0  2  0  0  0  0  0  0  0  0  0
    0.2056   -0.7359   -3.5782 C   0  0  1  0  0  0  0  0  0  0  0  0
   -0.9926   -1.6884   -3.3889 C   0  0  1  0  0  0  0  0  0  0  0  0
   -0.1847    0.8000   -1.2766 H   0  0  0  0  0  0  0  0  0  0  0  0
   -2.8837    0.2435   -2.6815 H   0  0  0  0  0  0  0  0  0  0  0  0
   -0.9657    0.9649   -4.2651 H   0  0  0  0  0  0  0  0  0  0  0  0
   -0.9502   -1.6731   -1.2130 H   0  0  0  0  0  0  0  0  0  0  0  0
    0.9677   -0.9517   -2.7965 H   0  0  0  0  0  0  0  0  0  0  0  0
   -1.7313   -1.5082   -4.2015 H   0  0  0  0  0  0  0  0  0  0  0  0
  1  7  1  0  0  0  0
  2  8  1  0  0  0  0
  3  9  1  0  0  0  0
  4 10  1  0  0  0  0
  5 11  1  0  0  0  0
  6 12  1  0  0  0  0
  7  8  1  1  0  0  0
  7 13  1  0  0  0  0
  8 10  1  6  0  0  0
  8 14  1  0  0  0  0
  9  7  1  1  0  0  0
  9 15  1  0  0  0  0
 10 12  1  6  0  0  0
 10 16  1  0  0  0  0
 11  9  1  1  0  0  0
 11 17  1  0  0  0  0
 12 11  1  6  0  0  0
 12 18  1  0  0  0  0
M  END
