
 OpenBabel11042216233D

 26 25  0  0  1  0  0  0  0  0999 V2000
    0.5738    1.3410   -1.1408 O   0  0  0  0  0  0  0  0  0  0  0  0
   -0.5997   -1.3458   -1.1537 O   0  0  0  0  0  0  0  0  0  0  0  0
    1.9824   -1.1484    1.1410 O   0  0  0  0  0  0  0  0  0  0  0  0
   -2.0000    1.1764    1.1176 O   0  0  0  0  0  0  0  0  0  0  0  0
    4.3509   -0.1119    0.0306 O   0  0  0  0  0  0  0  0  0  0  0  0
   -4.3789    0.1297    0.0616 O   0  0  0  0  0  0  0  0  0  0  0  0
    0.6100    0.4581   -0.0440 C   0  0  1  0  0  0  0  0  0  0  0  0
   -0.6330   -0.4740   -0.0481 C   0  0  1  0  0  0  0  0  0  0  0  0
    1.9457   -0.3307   -0.0026 C   0  0  1  0  0  0  0  0  0  0  0  0
   -1.9684    0.3198    0.0021 C   0  0  1  0  0  0  0  0  0  0  0  0
    3.1530    0.6177    0.0353 C   0  0  0  0  0  0  0  0  0  0  0  0
   -3.1918   -0.6151    0.0199 C   0  0  0  0  0  0  0  0  0  0  0  0
    0.5697    1.0763    0.8797 H   0  0  0  0  0  0  0  0  0  0  0  0
   -0.5941   -1.1027    0.8681 H   0  0  0  0  0  0  0  0  0  0  0  0
    2.0421   -0.9494   -0.9275 H   0  0  0  0  0  0  0  0  0  0  0  0
   -2.0391    0.9511   -0.9105 H   0  0  0  0  0  0  0  0  0  0  0  0
    3.1065    1.2848    0.9274 H   0  0  0  0  0  0  0  0  0  0  0  0
    3.1512    1.2758   -0.8592 H   0  0  0  0  0  0  0  0  0  0  0  0
   -3.1565   -1.2683    0.9178 H   0  0  0  0  0  0  0  0  0  0  0  0
   -3.1973   -1.2869   -0.8684 H   0  0  0  0  0  0  0  0  0  0  0  0
    0.7912    0.8252   -1.9601 H   0  0  0  0  0  0  0  0  0  0  0  0
   -0.8214   -0.8225   -1.9670 H   0  0  0  0  0  0  0  0  0  0  0  0
    1.7060   -2.0603    0.8622 H   0  0  0  0  0  0  0  0  0  0  0  0
   -1.9374    0.6124    1.9327 H   0  0  0  0  0  0  0  0  0  0  0  0
    4.5378   -0.3651    0.9722 H   0  0  0  0  0  0  0  0  0  0  0  0
   -4.5349    0.4683   -0.8586 H   0  0  0  0  0  0  0  0  0  0  0  0
  1  7  1  0  0  0  0
  1 21  1  0  0  0  0
  2  8  1  0  0  0  0
  2 22  1  0  0  0  0
  3  9  1  0  0  0  0
  3 23  1  0  0  0  0
  4 10  1  0  0  0  0
  4 24  1  0  0  0  0
  5 11  1  0  0  0  0
  5 25  1  0  0  0  0
  6 12  1  0  0  0  0
  6 26  1  0  0  0  0
  7  8  1  0  0  0  0
  7  9  1  0  0  0  0
  7 13  1  1  0  0  0
  8 10  1  0  0  0  0
  8 14  1  1  0  0  0
  9 11  1  0  0  0  0
  9 15  1  6  0  0  0
 10 12  1  0  0  0  0
 10 16  1  6  0  0  0
 11 17  1  0  0  0  0
 11 18  1  0  0  0  0
 12 19  1  0  0  0  0
 12 20  1  0  0  0  0
M  END
