
 OpenBabel09062116483D

 21 21  0  0  0  0  0  0  0  0999 V2000
    1.2835   -3.0766    0.0196 O   0  0  0  0  0  0  0  0  0  0  0  0
    2.9378    1.3909   -0.0184 O   0  0  0  0  0  0  0  0  0  0  0  0
   -2.9131   -0.2564   -0.5631 O   0  0  0  0  0  0  0  0  0  0  0  0
    3.4043   -1.2884    0.1599 O   0  0  0  0  0  0  0  0  0  0  0  0
   -2.0869    1.8257   -0.5748 O   0  0  0  0  0  0  0  0  0  0  0  0
   -0.4932    0.1174   -0.3230 C   0  0  0  0  0  0  0  0  0  0  0  0
    0.5915    1.0088   -0.2501 C   0  0  0  0  0  0  0  0  0  0  0  0
   -0.2471   -1.2628   -0.2306 C   0  0  0  0  0  0  0  0  0  0  0  0
    1.0591   -1.7485   -0.0680 C   0  0  0  0  0  0  0  0  0  0  0  0
    1.9002    0.5308   -0.0877 C   0  0  0  0  0  0  0  0  0  0  0  0
    2.1371   -0.8475    0.0036 C   0  0  0  0  0  0  0  0  0  0  0  0
   -1.8788    0.6219   -0.4949 C   0  0  0  0  0  0  0  0  0  0  0  0
   -4.2311    0.1156   -0.7216 C   0  0  0  0  0  0  0  0  0  0  0  0
    0.4256    2.0770   -0.3191 H   0  0  0  0  0  0  0  0  0  0  0  0
   -1.0677   -1.9678   -0.2842 H   0  0  0  0  0  0  0  0  0  0  0  0
    0.5674   -3.7262   -0.0255 H   0  0  0  0  0  0  0  0  0  0  0  0
    2.8189    2.3496   -0.0771 H   0  0  0  0  0  0  0  0  0  0  0  0
    3.6292   -2.2268    0.2288 H   0  0  0  0  0  0  0  0  0  0  0  0
   -4.8655   -0.7940   -0.7456 H   0  0  0  0  0  0  0  0  0  0  0  0
   -4.5534    0.7545    0.1283 H   0  0  0  0  0  0  0  0  0  0  0  0
   -4.3608    0.6678   -1.6770 H   0  0  0  0  0  0  0  0  0  0  0  0
  1  9  1  0  0  0  0
  1 16  1  0  0  0  0
  2 10  1  0  0  0  0
  2 17  1  0  0  0  0
  3 12  1  0  0  0  0
  3 13  1  0  0  0  0
  4 11  1  0  0  0  0
  4 18  1  0  0  0  0
  5 12  2  0  0  0  0
  6  7  2  0  0  0  0
  6  8  1  0  0  0  0
  6 12  1  0  0  0  0
  7 10  1  0  0  0  0
  7 14  1  0  0  0  0
  8  9  2  0  0  0  0
  8 15  1  0  0  0  0
  9 11  1  0  0  0  0
 10 11  2  0  0  0  0
 13 19  1  0  0  0  0
 13 20  1  0  0  0  0
 13 21  1  0  0  0  0
M  END
