
 OpenBabel09062115443D

 19 19  0  0  0  0  0  0  0  0999 V2000
    5.7718    2.8785   -1.0481 C   0  0  0  0  0  0  0  0  0  0  0  0
    6.4893    1.7097   -0.7756 C   0  0  0  0  0  0  0  0  0  0  0  0
    4.3741    2.8886   -0.9435 C   0  0  0  0  0  0  0  0  0  0  0  0
    5.8181    0.5328   -0.3939 C   0  0  0  0  0  0  0  0  0  0  0  0
    4.4153    0.5528   -0.2917 C   0  0  0  0  0  0  0  0  0  0  0  0
    6.5735   -0.7110   -0.1032 C   0  0  0  0  0  0  0  0  0  0  0  0
    3.7008    1.7233   -0.5650 C   0  0  0  0  0  0  0  0  0  0  0  0
    3.6697    4.0086   -1.2034 O   0  0  0  0  0  0  0  0  0  0  0  0
    5.9054   -1.8357    0.2635 O   0  0  0  0  0  0  0  0  0  0  0  0
    6.5182   -3.0363    0.5530 C   0  0  0  0  0  0  0  0  0  0  0  0
    7.7943   -0.7214   -0.1942 O   0  0  0  0  0  0  0  0  0  0  0  0
    6.3040    3.7750   -1.3405 H   0  0  0  0  0  0  0  0  0  0  0  0
    7.5684    1.7282   -0.8637 H   0  0  0  0  0  0  0  0  0  0  0  0
    3.8680   -0.3350   -0.0007 H   0  0  0  0  0  0  0  0  0  0  0  0
    2.6211    1.7236   -0.4821 H   0  0  0  0  0  0  0  0  0  0  0  0
    4.0972    4.8356   -1.4682 H   0  0  0  0  0  0  0  0  0  0  0  0
    5.7443   -3.7841    0.8222 H   0  0  0  0  0  0  0  0  0  0  0  0
    7.2124   -2.9145    1.4119 H   0  0  0  0  0  0  0  0  0  0  0  0
    7.0782   -3.4039   -0.3334 H   0  0  0  0  0  0  0  0  0  0  0  0
  1  2  1  0  0  0  0
  1  3  2  0  0  0  0
  1 12  1  0  0  0  0
  2  4  2  0  0  0  0
  2 13  1  0  0  0  0
  3  8  1  0  0  0  0
  4  6  1  0  0  0  0
  4  5  1  0  0  0  0
  5  7  2  0  0  0  0
  5 14  1  0  0  0  0
  6  9  1  0  0  0  0
  6 11  2  0  0  0  0
  7  3  1  0  0  0  0
  7 15  1  0  0  0  0
  8 16  1  0  0  0  0
  9 10  1  0  0  0  0
 10 17  1  0  0  0  0
 10 18  1  0  0  0  0
 10 19  1  0  0  0  0
M  END
