
 OpenBabel11062311163D

  7  6  0  0  0  0  0  0  0  0999 V2000
    1.0204   -0.0047    0.0908 Cl  0  0  0  0  0  0  0  0  0  0  0  0
    3.6709    1.6135    1.0357 Cl  0  0  0  0  0  0  0  0  0  0  0  0
    3.0686   -0.0560    0.0088 Si  0  0  0  0  0  0  0  0  0  0  0  0
    3.6702   -1.5580    0.8938 C   0  0  0  0  0  0  0  0  0  0  0  0
    3.3166   -1.5836    1.9294 H   0  0  0  0  0  0  0  0  0  0  0  0
    3.3225   -2.4724    0.4028 H   0  0  0  0  0  0  0  0  0  0  0  0
    4.7639   -1.5924    0.9166 H   0  0  0  0  0  0  0  0  0  0  0  0
  1  3  1  0  0  0  0
  2  3  1  0  0  0  0
  3  4  1  0  0  0  0
  4  5  1  0  0  0  0
  4  6  1  0  0  0  0
  4  7  1  0  0  0  0
M  END
