
 OpenBabel05312313153D

 16 16  0  0  0  0  0  0  0  0999 V2000
    0.9664    2.2782   -2.0057 S   0  0  0  0  0  0  0  0  0  0  0  0
   -0.0409    1.3930   -0.8145 C   0  0  0  0  0  0  0  0  0  0  0  0
   -0.6195    2.0776    0.2621 C   0  0  0  0  0  0  0  0  0  0  0  0
   -0.2479    0.0148   -0.9565 C   0  0  0  0  0  0  0  0  0  0  0  0
   -1.4038    1.3862    1.1912 C   0  0  0  0  0  0  0  0  0  0  0  0
   -1.0325   -0.6748   -0.0264 C   0  0  0  0  0  0  0  0  0  0  0  0
   -1.6104    0.0106    1.0470 C   0  0  0  0  0  0  0  0  0  0  0  0
   -0.4430    2.6639   -3.0894 C   0  0  0  0  0  0  0  0  0  0  0  0
   -0.4631    3.1424    0.3790 H   0  0  0  0  0  0  0  0  0  0  0  0
    0.1969   -0.5211   -1.7853 H   0  0  0  0  0  0  0  0  0  0  0  0
   -1.8509    1.9161    2.0223 H   0  0  0  0  0  0  0  0  0  0  0  0
   -1.1924   -1.7395   -0.1373 H   0  0  0  0  0  0  0  0  0  0  0  0
   -2.2174   -0.5237    1.7664 H   0  0  0  0  0  0  0  0  0  0  0  0
   -0.0684    3.2444   -3.9571 H   0  0  0  0  0  0  0  0  0  0  0  0
   -1.1834    3.2932   -2.5526 H   0  0  0  0  0  0  0  0  0  0  0  0
   -0.9010    1.7298   -3.4765 H   0  0  0  0  0  0  0  0  0  0  0  0
  1  2  1  0  0  0  0
  1  8  1  0  0  0  0
  2  3  2  0  0  0  0
  2  4  1  0  0  0  0
  3  5  1  0  0  0  0
  3  9  1  0  0  0  0
  4  6  2  0  0  0  0
  4 10  1  0  0  0  0
  5  7  2  0  0  0  0
  5 11  1  0  0  0  0
  6  7  1  0  0  0  0
  6 12  1  0  0  0  0
  7 13  1  0  0  0  0
  8 14  1  0  0  0  0
  8 15  1  0  0  0  0
  8 16  1  0  0  0  0
M  END
