
 OpenBabel11072209223D

 17 17  0  0  0  0  0  0  0  0999 V2000
    2.1772    0.7620   -0.0004 O   0  0  0  0  0  0  0  0  0  0  0  0
    1.8171   -1.4494   -0.0006 O   0  0  0  0  0  0  0  0  0  0  0  0
   -2.0164    1.3480    0.0001 N   0  0  0  0  0  0  0  0  0  0  0  0
   -0.1182   -0.1193   -0.0002 C   0  0  0  0  0  0  0  0  0  0  0  0
   -0.9973   -1.2163   -0.0004 C   0  0  0  0  0  0  0  0  0  0  0  0
   -0.6675    1.1746    0.0000 C   0  0  0  0  0  0  0  0  0  0  0  0
    1.3519   -0.3170   -0.0004 C   0  0  0  0  0  0  0  0  0  0  0  0
   -2.3779   -1.0095   -0.0002 C   0  0  0  0  0  0  0  0  0  0  0  0
   -2.8741    0.2942    0.0000 C   0  0  0  0  0  0  0  0  0  0  0  0
    3.5534    0.6796   -0.0006 C   0  0  0  0  0  0  0  0  0  0  0  0
   -0.6194   -2.2311   -0.0006 H   0  0  0  0  0  0  0  0  0  0  0  0
   -0.0287    2.0481    0.0001 H   0  0  0  0  0  0  0  0  0  0  0  0
   -3.0570   -1.8523   -0.0003 H   0  0  0  0  0  0  0  0  0  0  0  0
   -3.9417    0.4691    0.0001 H   0  0  0  0  0  0  0  0  0  0  0  0
    3.9048    0.1459   -0.9095 H   0  0  0  0  0  0  0  0  0  0  0  0
    3.9051    0.1456    0.9081 H   0  0  0  0  0  0  0  0  0  0  0  0
    3.9793    1.7039   -0.0005 H   0  0  0  0  0  0  0  0  0  0  0  0
  1  7  1  0  0  0  0
  1 10  1  0  0  0  0
  2  7  2  0  0  0  0
  3  6  1  0  0  0  0
  3  9  2  0  0  0  0
  4  5  1  0  0  0  0
  4  6  2  0  0  0  0
  4  7  1  0  0  0  0
  5  8  2  0  0  0  0
  5 11  1  0  0  0  0
  6 12  1  0  0  0  0
  8  9  1  0  0  0  0
  8 13  1  0  0  0  0
  9 14  1  0  0  0  0
 10 15  1  0  0  0  0
 10 16  1  0  0  0  0
 10 17  1  0  0  0  0
M  END
