
 OpenBabel10222214103D

 22 22  0  0  0  0  0  0  0  0999 V2000
   -2.9465   -0.0990   -0.1899 O   0  0  0  0  0  0  0  0  0  0  0  0
    3.3106    0.1611    1.0804 O   0  0  0  0  0  0  0  0  0  0  0  0
   -3.1574    1.4729   -1.7801 O   0  0  0  0  0  0  0  0  0  0  0  0
   -0.1336    0.0101   -1.2503 C   0  0  0  0  0  0  0  0  0  0  0  0
   -1.3790   -0.0471   -2.0965 C   0  0  0  0  0  0  0  0  0  0  0  0
    0.3621    1.2467   -0.8024 C   0  0  0  0  0  0  0  0  0  0  0  0
    0.5488   -1.1682   -0.9040 C   0  0  0  0  0  0  0  0  0  0  0  0
    1.5185    1.3025   -0.0188 C   0  0  0  0  0  0  0  0  0  0  0  0
    1.7053   -1.1100   -0.1201 C   0  0  0  0  0  0  0  0  0  0  0  0
    2.1942    0.1227    0.3253 C   0  0  0  0  0  0  0  0  0  0  0  0
   -2.5580    0.4991   -1.3449 C   0  0  0  0  0  0  0  0  0  0  0  0
   -4.0101    0.3279    0.5760 C   0  0  0  0  0  0  0  0  0  0  0  0
   -1.2079    0.5376   -3.0268 H   0  0  0  0  0  0  0  0  0  0  0  0
   -1.6118   -1.0936   -2.3891 H   0  0  0  0  0  0  0  0  0  0  0  0
   -0.1480    2.1666   -1.0609 H   0  0  0  0  0  0  0  0  0  0  0  0
    0.1872   -2.1326   -1.2385 H   0  0  0  0  0  0  0  0  0  0  0  0
    1.8880    2.2624    0.3194 H   0  0  0  0  0  0  0  0  0  0  0  0
    2.2221   -2.0249    0.1412 H   0  0  0  0  0  0  0  0  0  0  0  0
   -4.1092   -0.3330    1.4614 H   0  0  0  0  0  0  0  0  0  0  0  0
   -4.9504    0.2799   -0.0138 H   0  0  0  0  0  0  0  0  0  0  0  0
   -3.8375    1.3689    0.9239 H   0  0  0  0  0  0  0  0  0  0  0  0
    3.6816    0.9927    1.4084 H   0  0  0  0  0  0  0  0  0  0  0  0
  1 11  1  0  0  0  0
  1 12  1  0  0  0  0
  2 10  1  0  0  0  0
  2 22  1  0  0  0  0
  3 11  2  0  0  0  0
  4  5  1  0  0  0  0
  4  6  2  0  0  0  0
  4  7  1  0  0  0  0
  5 11  1  0  0  0  0
  5 13  1  0  0  0  0
  5 14  1  0  0  0  0
  6  8  1  0  0  0  0
  6 15  1  0  0  0  0
  7  9  2  0  0  0  0
  7 16  1  0  0  0  0
  8 10  2  0  0  0  0
  8 17  1  0  0  0  0
  9 10  1  0  0  0  0
  9 18  1  0  0  0  0
 12 19  1  0  0  0  0
 12 20  1  0  0  0  0
 12 21  1  0  0  0  0
M  END
