
 OpenBabel05252318533D

 35 34  0  0  0  0  0  0  0  0999 V2000
   -4.4358    0.5241    0.5998 O   0  0  0  0  0  0  0  0  0  0  0  0
   -4.7747   -1.4794   -0.3657 O   0  0  0  0  0  0  0  0  0  0  0  0
    2.2968   -0.4565    0.3963 C   0  0  0  0  0  0  0  0  0  0  0  0
    0.9130    0.0336   -0.0466 C   0  0  0  0  0  0  0  0  0  0  0  0
    3.4071    0.4145   -0.2033 C   0  0  0  0  0  0  0  0  0  0  0  0
   -0.1973   -0.8376    0.5528 C   0  0  0  0  0  0  0  0  0  0  0  0
    4.7908   -0.0760    0.2391 C   0  0  0  0  0  0  0  0  0  0  0  0
   -1.5810   -0.3478    0.1094 C   0  0  0  0  0  0  0  0  0  0  0  0
    5.9004    0.7951   -0.3609 C   0  0  0  0  0  0  0  0  0  0  0  0
   -2.6902   -1.2198    0.7075 C   0  0  0  0  0  0  0  0  0  0  0  0
    7.2793    0.3099    0.0770 C   0  0  0  0  0  0  0  0  0  0  0  0
   -4.0427   -0.7348    0.2715 C   0  0  0  0  0  0  0  0  0  0  0  0
   -5.6462    1.1013    0.2669 C   0  0  0  0  0  0  0  0  0  0  0  0
    2.3609   -0.4200    1.5064 H   0  0  0  0  0  0  0  0  0  0  0  0
    2.4366   -1.5091    0.0643 H   0  0  0  0  0  0  0  0  0  0  0  0
    0.7731    1.0862    0.2854 H   0  0  0  0  0  0  0  0  0  0  0  0
    0.8490   -0.0030   -1.1567 H   0  0  0  0  0  0  0  0  0  0  0  0
    3.2675    1.4670    0.1288 H   0  0  0  0  0  0  0  0  0  0  0  0
    3.3428    0.3780   -1.3134 H   0  0  0  0  0  0  0  0  0  0  0  0
   -0.0569   -1.8902    0.2210 H   0  0  0  0  0  0  0  0  0  0  0  0
   -0.1336   -0.8009    1.6629 H   0  0  0  0  0  0  0  0  0  0  0  0
    4.9307   -1.1285   -0.0931 H   0  0  0  0  0  0  0  0  0  0  0  0
    4.8556   -0.0395    1.3492 H   0  0  0  0  0  0  0  0  0  0  0  0
   -1.6459   -0.3849   -1.0008 H   0  0  0  0  0  0  0  0  0  0  0  0
   -1.7191    0.7052    0.4411 H   0  0  0  0  0  0  0  0  0  0  0  0
    5.8439    0.7604   -1.4708 H   0  0  0  0  0  0  0  0  0  0  0  0
    5.7691    1.8484   -0.0297 H   0  0  0  0  0  0  0  0  0  0  0  0
   -2.6410   -1.1858    1.8172 H   0  0  0  0  0  0  0  0  0  0  0  0
   -2.5461   -2.2734    0.3795 H   0  0  0  0  0  0  0  0  0  0  0  0
    7.3713    0.3551    1.1831 H   0  0  0  0  0  0  0  0  0  0  0  0
    8.0617    0.9578   -0.3715 H   0  0  0  0  0  0  0  0  0  0  0  0
    7.4462   -0.7351   -0.2609 H   0  0  0  0  0  0  0  0  0  0  0  0
   -5.4595    2.0141   -0.3355 H   0  0  0  0  0  0  0  0  0  0  0  0
   -6.1790    1.3897    1.1963 H   0  0  0  0  0  0  0  0  0  0  0  0
   -6.2996    0.4194   -0.3182 H   0  0  0  0  0  0  0  0  0  0  0  0
  1 12  1  0  0  0  0
  1 13  1  0  0  0  0
  2 12  2  0  0  0  0
  3  4  1  0  0  0  0
  3  5  1  0  0  0  0
  3 14  1  0  0  0  0
  3 15  1  0  0  0  0
  4  6  1  0  0  0  0
  4 16  1  0  0  0  0
  4 17  1  0  0  0  0
  5  7  1  0  0  0  0
  5 18  1  0  0  0  0
  5 19  1  0  0  0  0
  6  8  1  0  0  0  0
  6 20  1  0  0  0  0
  6 21  1  0  0  0  0
  7  9  1  0  0  0  0
  7 22  1  0  0  0  0
  7 23  1  0  0  0  0
  8 10  1  0  0  0  0
  8 24  1  0  0  0  0
  8 25  1  0  0  0  0
  9 11  1  0  0  0  0
  9 26  1  0  0  0  0
  9 27  1  0  0  0  0
 10 12  1  0  0  0  0
 10 28  1  0  0  0  0
 10 29  1  0  0  0  0
 11 30  1  0  0  0  0
 11 31  1  0  0  0  0
 11 32  1  0  0  0  0
 13 33  1  0  0  0  0
 13 34  1  0  0  0  0
 13 35  1  0  0  0  0
M  END
