
 OpenBabel08312120113D

 23 23  0  0  0  0  0  0  0  0999 V2000
   -0.7356    1.2188    0.0627 C   0  0  0  0  0  0  0  0  0  0  0  0
   -1.2142   -0.0944    0.0109 C   0  0  0  0  0  0  0  0  0  0  0  0
    0.6389    1.4748   -0.0235 C   0  0  0  0  0  0  0  0  0  0  0  0
   -0.3195   -1.1773   -0.1288 C   0  0  0  0  0  0  0  0  0  0  0  0
    1.0577   -0.9045   -0.2140 C   0  0  0  0  0  0  0  0  0  0  0  0
   -0.7589   -2.6004   -0.1909 C   0  0  0  0  0  0  0  0  0  0  0  0
    1.5315    0.4094   -0.1618 C   0  0  0  0  0  0  0  0  0  0  0  0
    1.1118    2.7366    0.0254 O   0  0  0  0  0  0  0  0  0  0  0  0
   -2.0390   -3.0152   -0.1226 C   0  0  0  0  0  0  0  0  0  0  0  0
   -2.4114   -4.4455   -0.1903 C   0  0  0  0  0  0  0  0  0  0  0  0
   -4.1893   -6.0791   -0.1662 C   0  0  0  0  0  0  0  0  0  0  0  0
   -3.7237   -4.7824   -0.1144 O   0  0  0  0  0  0  0  0  0  0  0  0
   -1.5523   -5.3094   -0.3125 O   0  0  0  0  0  0  0  0  0  0  0  0
   -1.4363    2.0374    0.1701 H   0  0  0  0  0  0  0  0  0  0  0  0
   -2.2810   -0.2392    0.0813 H   0  0  0  0  0  0  0  0  0  0  0  0
    1.7723   -1.7117   -0.3217 H   0  0  0  0  0  0  0  0  0  0  0  0
    0.0199   -3.3512   -0.2996 H   0  0  0  0  0  0  0  0  0  0  0  0
    2.5956    0.5985   -0.2291 H   0  0  0  0  0  0  0  0  0  0  0  0
    0.5271    3.5020    0.1205 H   0  0  0  0  0  0  0  0  0  0  0  0
   -2.8527   -2.3107   -0.0144 H   0  0  0  0  0  0  0  0  0  0  0  0
   -3.7705   -6.6703    0.6762 H   0  0  0  0  0  0  0  0  0  0  0  0
   -5.2955   -6.0723   -0.0828 H   0  0  0  0  0  0  0  0  0  0  0  0
   -3.9062   -6.5494   -1.1322 H   0  0  0  0  0  0  0  0  0  0  0  0
  1  3  1  0  0  0  0
  1 14  1  0  0  0  0
  2  1  2  0  0  0  0
  2 15  1  0  0  0  0
  3  7  2  0  0  0  0
  3  8  1  0  0  0  0
  4  2  1  0  0  0  0
  4  6  1  0  0  0  0
  5  4  2  0  0  0  0
  5 16  1  0  0  0  0
  6  9  2  0  0  0  0
  6 17  1  0  0  0  0
  7  5  1  0  0  0  0
  7 18  1  0  0  0  0
  8 19  1  0  0  0  0
  9 10  1  0  0  0  0
  9 20  1  0  0  0  0
 10 12  1  0  0  0  0
 10 13  2  0  0  0  0
 11 12  1  0  0  0  0
 11 21  1  0  0  0  0
 11 22  1  0  0  0  0
 11 23  1  0  0  0  0
M  END
