
 OpenBabel11132207123D

 44 44  0  0  1  0  0  0  0  0999 V2000
   -0.6272   -1.7015   -0.3178 O   0  0  0  0  0  0  0  0  0  0  0  0
   -1.5071   -0.0324   -2.3815 O   0  0  0  0  0  0  0  0  0  0  0  0
    5.2976    0.3315   -1.0087 O   0  0  0  0  0  0  0  0  0  0  0  0
   -2.6825    2.0483    0.4589 N   0  0  0  0  0  0  0  0  0  0  0  0
   -1.5622    0.4018   -1.0448 C   0  0  1  0  0  0  0  0  0  0  0  0
   -2.7058    1.4253   -0.8757 C   0  0  0  0  0  0  0  0  0  0  0  0
   -3.6996    3.1077    0.6223 C   0  0  0  0  0  0  0  0  0  0  0  0
   -1.6748   -0.8218   -0.1059 C   0  0  0  0  0  0  0  0  0  0  0  0
   -3.3521    4.3634   -0.1968 C   0  0  0  0  0  0  0  0  0  0  0  0
   -3.7925    3.4986    2.1050 C   0  0  0  0  0  0  0  0  0  0  0  0
    0.6798   -1.5055    0.0044 C   0  0  0  0  0  0  0  0  0  0  0  0
    3.4183   -1.1910    0.6128 C   0  0  0  0  0  0  0  0  0  0  0  0
    4.8849   -1.0240    0.9337 C   0  0  0  0  0  0  0  0  0  0  0  0
    1.1159   -0.4326    0.8082 C   0  0  0  0  0  0  0  0  0  0  0  0
    1.6249   -2.4179   -0.4789 C   0  0  0  0  0  0  0  0  0  0  0  0
    2.4715   -0.2807    1.1093 C   0  0  0  0  0  0  0  0  0  0  0  0
    2.9821   -2.2638   -0.1813 C   0  0  0  0  0  0  0  0  0  0  0  0
    5.4447    0.2965    0.3955 C   0  0  0  0  0  0  0  0  0  0  0  0
    5.6798    1.6011   -1.4863 C   0  0  0  0  0  0  0  0  0  0  0  0
   -0.6136    0.9387   -0.8363 H   0  0  0  0  0  0  0  0  0  0  0  0
   -2.5405    2.1967   -1.6535 H   0  0  0  0  0  0  0  0  0  0  0  0
   -3.6894    0.9389   -1.0639 H   0  0  0  0  0  0  0  0  0  0  0  0
   -4.6995    2.7303    0.3088 H   0  0  0  0  0  0  0  0  0  0  0  0
   -2.8978    1.2984    1.1547 H   0  0  0  0  0  0  0  0  0  0  0  0
   -2.6232   -1.3523   -0.3363 H   0  0  0  0  0  0  0  0  0  0  0  0
   -1.7085   -0.5418    0.9663 H   0  0  0  0  0  0  0  0  0  0  0  0
   -3.3564    4.1644   -1.2857 H   0  0  0  0  0  0  0  0  0  0  0  0
   -2.3536    4.7538    0.0949 H   0  0  0  0  0  0  0  0  0  0  0  0
   -4.1110    5.1551   -0.0180 H   0  0  0  0  0  0  0  0  0  0  0  0
   -2.8150    3.8829    2.4686 H   0  0  0  0  0  0  0  0  0  0  0  0
   -4.5651    4.2836    2.2517 H   0  0  0  0  0  0  0  0  0  0  0  0
   -4.0792    2.6188    2.7194 H   0  0  0  0  0  0  0  0  0  0  0  0
    5.0201   -1.0599    2.0363 H   0  0  0  0  0  0  0  0  0  0  0  0
    5.4762   -1.8565    0.4926 H   0  0  0  0  0  0  0  0  0  0  0  0
   -2.3694   -0.4792   -2.5906 H   0  0  0  0  0  0  0  0  0  0  0  0
    2.7802    0.5493    1.7318 H   0  0  0  0  0  0  0  0  0  0  0  0
    3.6910   -2.9825   -0.5733 H   0  0  0  0  0  0  0  0  0  0  0  0
    0.4196    0.2892    1.2113 H   0  0  0  0  0  0  0  0  0  0  0  0
    1.3062   -3.2502   -1.0941 H   0  0  0  0  0  0  0  0  0  0  0  0
    4.9007    1.1383    0.8819 H   0  0  0  0  0  0  0  0  0  0  0  0
    6.5227    0.3461    0.6701 H   0  0  0  0  0  0  0  0  0  0  0  0
    6.7375    1.8326   -1.2292 H   0  0  0  0  0  0  0  0  0  0  0  0
    5.6101    1.5929   -2.5934 H   0  0  0  0  0  0  0  0  0  0  0  0
    4.9881    2.3923   -1.1214 H   0  0  0  0  0  0  0  0  0  0  0  0
  1  8  1  0  0  0  0
  1 11  1  0  0  0  0
  2  5  1  0  0  0  0
  2 35  1  0  0  0  0
  3 18  1  0  0  0  0
  3 19  1  0  0  0  0
  4  6  1  0  0  0  0
  4  7  1  0  0  0  0
  4 24  1  0  0  0  0
  5  6  1  0  0  0  0
  5  8  1  0  0  0  0
  5 20  1  1  0  0  0
  6 21  1  0  0  0  0
  6 22  1  0  0  0  0
  7  9  1  0  0  0  0
  7 10  1  0  0  0  0
  7 23  1  0  0  0  0
  8 25  1  0  0  0  0
  8 26  1  0  0  0  0
  9 27  1  0  0  0  0
  9 28  1  0  0  0  0
  9 29  1  0  0  0  0
 10 30  1  0  0  0  0
 10 31  1  0  0  0  0
 10 32  1  0  0  0  0
 11 14  2  0  0  0  0
 11 15  1  0  0  0  0
 12 13  1  0  0  0  0
 12 16  2  0  0  0  0
 12 17  1  0  0  0  0
 13 18  1  0  0  0  0
 13 33  1  0  0  0  0
 13 34  1  0  0  0  0
 14 16  1  0  0  0  0
 14 38  1  0  0  0  0
 15 17  2  0  0  0  0
 15 39  1  0  0  0  0
 16 36  1  0  0  0  0
 17 37  1  0  0  0  0
 18 40  1  0  0  0  0
 18 41  1  0  0  0  0
 19 42  1  0  0  0  0
 19 43  1  0  0  0  0
 19 44  1  0  0  0  0
M  END
