
 OpenBabel06142413213D

 32 34  0  0  0  0  0  0  0  0999 V2000
   -0.2290   -0.8451    0.1879 O   0  0  0  0  0  0  0  0  0  0  0  0
    0.8137    2.6269   -0.5896 O   0  0  0  0  0  0  0  0  0  0  0  0
   -4.3402    1.6988   -0.2516 O   0  0  0  0  0  0  0  0  0  0  0  0
   -1.9743    2.7502   -0.5409 O   0  0  0  0  0  0  0  0  0  0  0  0
    2.5941    1.1080   -1.9853 O   0  0  0  0  0  0  0  0  0  0  0  0
   -4.4115   -2.9496    0.7343 O   0  0  0  0  0  0  0  0  0  0  0  0
    6.0038   -1.1733    0.4845 O   0  0  0  0  0  0  0  0  0  0  0  0
   -2.2386    0.4879   -0.0475 C   0  0  0  0  0  0  0  0  0  0  0  0
    0.5588    0.2721   -0.0722 C   0  0  0  0  0  0  0  0  0  0  0  0
   -1.5916   -0.7179    0.1912 C   0  0  0  0  0  0  0  0  0  0  0  0
    2.0083   -0.0445    0.0331 C   0  0  0  0  0  0  0  0  0  0  0  0
    0.0567    1.4998   -0.3292 C   0  0  0  0  0  0  0  0  0  0  0  0
   -1.4226    1.6743   -0.3218 C   0  0  0  0  0  0  0  0  0  0  0  0
   -3.6377    0.5453   -0.0246 C   0  0  0  0  0  0  0  0  0  0  0  0
   -2.3344   -1.8696    0.4534 C   0  0  0  0  0  0  0  0  0  0  0  0
    2.9724    0.3347   -0.9175 C   0  0  0  0  0  0  0  0  0  0  0  0
   -3.7245   -1.8011    0.4739 C   0  0  0  0  0  0  0  0  0  0  0  0
   -4.3862   -0.6002    0.2367 C   0  0  0  0  0  0  0  0  0  0  0  0
    2.4426   -0.8177    1.1252 C   0  0  0  0  0  0  0  0  0  0  0  0
    4.3166   -0.0297   -0.7893 C   0  0  0  0  0  0  0  0  0  0  0  0
    3.7833   -1.1872    1.2620 C   0  0  0  0  0  0  0  0  0  0  0  0
    4.7078   -0.7912    0.3056 C   0  0  0  0  0  0  0  0  0  0  0  0
   -1.8352   -2.8162    0.6409 H   0  0  0  0  0  0  0  0  0  0  0  0
   -5.4695   -0.5349    0.2501 H   0  0  0  0  0  0  0  0  0  0  0  0
    1.7358   -1.1413    1.8876 H   0  0  0  0  0  0  0  0  0  0  0  0
    5.0471    0.2853   -1.5259 H   0  0  0  0  0  0  0  0  0  0  0  0
    4.1013   -1.7828    2.1137 H   0  0  0  0  0  0  0  0  0  0  0  0
    1.6629    2.3240   -0.9625 H   0  0  0  0  0  0  0  0  0  0  0  0
   -3.6909    2.4212   -0.4200 H   0  0  0  0  0  0  0  0  0  0  0  0
    3.2818    1.0527   -2.6734 H   0  0  0  0  0  0  0  0  0  0  0  0
   -5.3641   -2.7550    0.7178 H   0  0  0  0  0  0  0  0  0  0  0  0
    6.5472   -0.8207   -0.2388 H   0  0  0  0  0  0  0  0  0  0  0  0
  1  9  1  0  0  0  0
  1 10  1  0  0  0  0
  2 12  1  0  0  0  0
  2 28  1  0  0  0  0
  3 14  1  0  0  0  0
  3 29  1  0  0  0  0
  4 13  2  0  0  0  0
  5 16  1  0  0  0  0
  5 30  1  0  0  0  0
  6 17  1  0  0  0  0
  6 31  1  0  0  0  0
  7 22  1  0  0  0  0
  7 32  1  0  0  0  0
  8 10  1  0  0  0  0
  8 13  1  0  0  0  0
  8 14  2  0  0  0  0
  9 11  1  0  0  0  0
  9 12  2  0  0  0  0
 10 15  2  0  0  0  0
 11 16  2  0  0  0  0
 11 19  1  0  0  0  0
 12 13  1  0  0  0  0
 14 18  1  0  0  0  0
 15 17  1  0  0  0  0
 15 23  1  0  0  0  0
 16 20  1  0  0  0  0
 17 18  2  0  0  0  0
 18 24  1  0  0  0  0
 19 21  2  0  0  0  0
 19 25  1  0  0  0  0
 20 22  2  0  0  0  0
 20 26  1  0  0  0  0
 21 22  1  0  0  0  0
 21 27  1  0  0  0  0
M  END
