
 OpenBabel12042411243D

 19 18  0  0  0  0  0  0  0  0999 V2000
   33.9585   39.7599   -0.3329 N   0  0  0  0  0  0  0  0  0  0  0  0
   35.2460   39.0745   -0.3588 C   0  0  1  0  0  0  0  0  0  0  0  0
   35.5022   38.4850   -1.7268 C   0  0  0  0  0  0  0  0  0  0  0  0
   36.3656   40.0595    0.0086 C   0  0  0  0  0  0  0  0  0  0  0  0
   32.9305   39.3995    0.4845 C   0  0  0  0  0  0  0  0  0  0  0  0
   36.6392   37.7911   -1.9489 O   0  0  0  0  0  0  0  0  0  0  0  0
   34.6882   38.6184   -2.6298 O   0  0  0  0  0  0  0  0  0  0  0  0
   36.1179   40.7141    1.6906 S   0  0  0  0  0  0  0  0  0  0  0  0
   31.6422   40.1652    0.4438 C   0  0  0  0  0  0  0  0  0  0  0  0
   33.0410   38.4571    1.2559 O   0  0  0  0  0  0  0  0  0  0  0  0
   33.8237   40.5621   -0.9687 H   0  0  0  0  0  0  0  0  0  0  0  0
   35.2675   38.2347    0.3699 H   0  0  0  0  0  0  0  0  0  0  0  0
   37.3405   39.5262   -0.0139 H   0  0  0  0  0  0  0  0  0  0  0  0
   36.3740   40.9033   -0.7151 H   0  0  0  0  0  0  0  0  0  0  0  0
   36.8309   37.3979   -2.8122 H   0  0  0  0  0  0  0  0  0  0  0  0
   37.3316   41.4267    1.6617 H   0  0  0  0  0  0  0  0  0  0  0  0
   31.8325   41.2279    0.7022 H   0  0  0  0  0  0  0  0  0  0  0  0
   31.2076   40.1090   -0.5762 H   0  0  0  0  0  0  0  0  0  0  0  0
   30.9109   39.7463    1.1679 H   0  0  0  0  0  0  0  0  0  0  0  0
  1  2  1  0  0  0  0
  1  5  1  0  0  0  0
  1 11  1  0  0  0  0
  2  3  1  0  0  0  0
  2  4  1  0  0  0  0
  2 12  1  1  0  0  0
  3  6  1  0  0  0  0
  3  7  2  0  0  0  0
  4  8  1  0  0  0  0
  4 13  1  0  0  0  0
  4 14  1  0  0  0  0
  5  9  1  0  0  0  0
  5 10  2  0  0  0  0
  6 15  1  0  0  0  0
  8 16  1  0  0  0  0
  9 17  1  0  0  0  0
  9 18  1  0  0  0  0
  9 19  1  0  0  0  0
M  END
