
 OpenBabel08072417313D

 16 15  0  0  0  0  0  0  0  0999 V2000
    2.3571    1.6705    1.5620 C   0  0  0  0  0  0  0  0  0  0  0  0
    3.6924    1.2251    2.1591 C   0  0  0  0  0  0  0  0  0  0  0  0
    4.8688    1.7817    1.3577 C   0  0  0  0  0  0  0  0  0  0  0  0
    1.1814    1.1194    2.3530 C   0  0  0  0  0  0  0  0  0  0  0  0
    6.1415    1.3568    1.9304 N   0  0  0  0  0  0  0  0  0  0  0  0
    2.3011    2.7652    1.5505 H   0  0  0  0  0  0  0  0  0  0  0  0
    2.2820    1.3305    0.5225 H   0  0  0  0  0  0  0  0  0  0  0  0
    3.7581    1.5648    3.2005 H   0  0  0  0  0  0  0  0  0  0  0  0
    3.7383    0.1288    2.1741 H   0  0  0  0  0  0  0  0  0  0  0  0
    4.8156    1.4397    0.3184 H   0  0  0  0  0  0  0  0  0  0  0  0
    4.8341    2.8764    1.3432 H   0  0  0  0  0  0  0  0  0  0  0  0
    1.2093    1.4666    3.3907 H   0  0  0  0  0  0  0  0  0  0  0  0
    0.2374    1.4509    1.9092 H   0  0  0  0  0  0  0  0  0  0  0  0
    1.1893    0.0248    2.3562 H   0  0  0  0  0  0  0  0  0  0  0  0
    6.1982    1.6637    2.9009 H   0  0  0  0  0  0  0  0  0  0  0  0
    6.1804    0.3385    1.9574 H   0  0  0  0  0  0  0  0  0  0  0  0
  1  2  1  0  0  0  0
  1  4  1  0  0  0  0
  1  6  1  0  0  0  0
  1  7  1  0  0  0  0
  2  3  1  0  0  0  0
  2  8  1  0  0  0  0
  2  9  1  0  0  0  0
  3  5  1  0  0  0  0
  3 10  1  0  0  0  0
  3 11  1  0  0  0  0
  4 12  1  0  0  0  0
  4 13  1  0  0  0  0
  4 14  1  0  0  0  0
  5 15  1  0  0  0  0
  5 16  1  0  0  0  0
M  END
