
 OpenBabel09092109533D

 20 19  0  0  0  0  0  0  0  0999 V2000
    0.9322    4.4175    3.5064 C   0  0  0  0  0  0  0  0  0  0  0  0
    2.4317    4.1613    3.3868 C   0  0  0  0  0  0  0  0  0  0  0  0
    2.7153    2.9303    2.5181 C   0  0  0  0  0  0  0  0  0  0  0  0
    4.2229    2.6762    2.4003 C   0  0  0  0  0  0  0  0  0  0  0  0
    4.5076    1.4429    1.5299 C   0  0  0  0  0  0  0  0  0  0  0  0
    5.9813    1.1491    1.3821 C   0  0  0  0  0  0  0  0  0  0  0  0
    6.3853    0.0940    0.6444 O   0  0  0  0  0  0  0  0  0  0  0  0
    6.8216    1.8531    1.9214 O   0  0  0  0  0  0  0  0  0  0  0  0
    0.7568    5.3127    4.1395 H   0  0  0  0  0  0  0  0  0  0  0  0
    0.4902    4.5990    2.5036 H   0  0  0  0  0  0  0  0  0  0  0  0
    0.4277    3.5459    3.9755 H   0  0  0  0  0  0  0  0  0  0  0  0
    2.9134    5.0562    2.9356 H   0  0  0  0  0  0  0  0  0  0  0  0
    2.8511    4.0052    4.4046 H   0  0  0  0  0  0  0  0  0  0  0  0
    2.2898    3.0918    1.5030 H   0  0  0  0  0  0  0  0  0  0  0  0
    2.2275    2.0400    2.9732 H   0  0  0  0  0  0  0  0  0  0  0  0
    4.7095    3.5669    1.9443 H   0  0  0  0  0  0  0  0  0  0  0  0
    4.6471    2.5140    3.4159 H   0  0  0  0  0  0  0  0  0  0  0  0
    4.0190    0.5541    1.9847 H   0  0  0  0  0  0  0  0  0  0  0  0
    4.0812    1.6046    0.5163 H   0  0  0  0  0  0  0  0  0  0  0  0
    5.7503   -0.4867    0.2020 H   0  0  0  0  0  0  0  0  0  0  0  0
  1  2  1  0  0  0  0
  1  9  1  0  0  0  0
  1 10  1  0  0  0  0
  1 11  1  0  0  0  0
  2  3  1  0  0  0  0
  2 12  1  0  0  0  0
  2 13  1  0  0  0  0
  3  4  1  0  0  0  0
  3 14  1  0  0  0  0
  3 15  1  0  0  0  0
  4  5  1  0  0  0  0
  4 16  1  0  0  0  0
  4 17  1  0  0  0  0
  5  6  1  0  0  0  0
  5 18  1  0  0  0  0
  5 19  1  0  0  0  0
  6  7  1  0  0  0  0
  6  8  2  0  0  0  0
  7 20  1  0  0  0  0
M  END
