
 OpenBabel05292309583D

 33 33  0  0  0  0  0  0  0  0999 V2000
    0.9781   -0.2801   -0.2587 C   0  0  0  0  0  0  0  0  0  0  0  0
    1.3692    1.1047    0.3130 C   0  0  0  0  0  0  0  0  0  0  0  0
    2.0377   -1.3248    0.1605 C   0  0  0  0  0  0  0  0  0  0  0  0
   -0.4182   -0.7442    0.2172 C   0  0  0  0  0  0  0  0  0  0  0  0
    2.7723    1.5117   -0.1598 C   0  0  0  0  0  0  0  0  0  0  0  0
    3.4359   -0.9075   -0.3150 C   0  0  0  0  0  0  0  0  0  0  0  0
    3.8078    0.4630    0.2618 C   0  0  0  0  0  0  0  0  0  0  0  0
   -1.5619    0.1686   -0.2537 C   0  0  0  0  0  0  0  0  0  0  0  0
   -2.9218   -0.3861    0.1884 C   0  0  0  0  0  0  0  0  0  0  0  0
   -4.0655    0.5189   -0.2846 C   0  0  0  0  0  0  0  0  0  0  0  0
   -5.4199   -0.0303    0.1538 C   0  0  0  0  0  0  0  0  0  0  0  0
    0.9683   -0.2211   -1.3708 H   0  0  0  0  0  0  0  0  0  0  0  0
    1.3535    1.0689    1.4251 H   0  0  0  0  0  0  0  0  0  0  0  0
    0.6581    1.8867   -0.0226 H   0  0  0  0  0  0  0  0  0  0  0  0
    1.7905   -2.3155   -0.2794 H   0  0  0  0  0  0  0  0  0  0  0  0
    2.0460   -1.4294    1.2686 H   0  0  0  0  0  0  0  0  0  0  0  0
   -0.4317   -0.8150    1.3275 H   0  0  0  0  0  0  0  0  0  0  0  0
   -0.6032   -1.7600   -0.1980 H   0  0  0  0  0  0  0  0  0  0  0  0
    3.0420    2.4975    0.2764 H   0  0  0  0  0  0  0  0  0  0  0  0
    2.7750    1.6100   -1.2680 H   0  0  0  0  0  0  0  0  0  0  0  0
    3.4507   -0.8598   -1.4264 H   0  0  0  0  0  0  0  0  0  0  0  0
    4.1823   -1.6638    0.0101 H   0  0  0  0  0  0  0  0  0  0  0  0
    4.8135    0.7623   -0.1037 H   0  0  0  0  0  0  0  0  0  0  0  0
    3.8445    0.4021    1.3720 H   0  0  0  0  0  0  0  0  0  0  0  0
   -1.4425    1.1848    0.1756 H   0  0  0  0  0  0  0  0  0  0  0  0
   -1.5391    0.2388   -1.3635 H   0  0  0  0  0  0  0  0  0  0  0  0
   -3.0604   -1.4040   -0.2386 H   0  0  0  0  0  0  0  0  0  0  0  0
   -2.9455   -0.4575    1.2984 H   0  0  0  0  0  0  0  0  0  0  0  0
   -3.9368    1.5378    0.1416 H   0  0  0  0  0  0  0  0  0  0  0  0
   -4.0500    0.5916   -1.3940 H   0  0  0  0  0  0  0  0  0  0  0  0
   -5.5847   -1.0409   -0.2769 H   0  0  0  0  0  0  0  0  0  0  0  0
   -6.2276    0.6436   -0.2017 H   0  0  0  0  0  0  0  0  0  0  0  0
   -5.4710   -0.0928    1.2618 H   0  0  0  0  0  0  0  0  0  0  0  0
  1  2  1  0  0  0  0
  1  3  1  0  0  0  0
  1  4  1  0  0  0  0
  1 12  1  0  0  0  0
  2  5  1  0  0  0  0
  2 13  1  0  0  0  0
  2 14  1  0  0  0  0
  3  6  1  0  0  0  0
  3 15  1  0  0  0  0
  3 16  1  0  0  0  0
  4  8  1  0  0  0  0
  4 17  1  0  0  0  0
  4 18  1  0  0  0  0
  5  7  1  0  0  0  0
  5 19  1  0  0  0  0
  5 20  1  0  0  0  0
  6  7  1  0  0  0  0
  6 21  1  0  0  0  0
  6 22  1  0  0  0  0
  7 23  1  0  0  0  0
  7 24  1  0  0  0  0
  8  9  1  0  0  0  0
  8 25  1  0  0  0  0
  8 26  1  0  0  0  0
  9 10  1  0  0  0  0
  9 27  1  0  0  0  0
  9 28  1  0  0  0  0
 10 11  1  0  0  0  0
 10 29  1  0  0  0  0
 10 30  1  0  0  0  0
 11 31  1  0  0  0  0
 11 32  1  0  0  0  0
 11 33  1  0  0  0  0
M  END
