  N-PENTYLCYCLOPENTANE.mol	3741-00-2
  NIST    07021521233D 1   1.00000  -393.12193
Copyright by the U.S. Sec. Commerce on behalf of U.S.A. All rights reserved.
 30 30  0  0  0  0  0  0  0  0999 V2000
    0.8179    1.4375    2.9787 C    0  0  0  0  0  0  0  0  0  0  0  0
    1.1725    0.8474    4.3581 C    0  0  0  0  0  0  0  0  0  0  0  0
    1.6431    1.8419    5.4331 C    0  0  0  0  0  0  0  0  0  0  0  0
    1.9757    1.9479    2.1022 C    0  0  0  0  0  0  0  0  0  0  0  0
    1.6061    1.2504    6.8594 C    0  0  0  0  0  0  0  0  0  0  0  0
    3.1001    2.3798    5.2947 C    0  0  0  0  0  0  0  0  0  0  0  0
    2.9555    0.8628    1.6337 C    0  0  0  0  0  0  0  0  0  0  0  0
    2.4835    2.2059    7.6779 C    0  0  0  0  0  0  0  0  0  0  0  0
    3.6735    2.4935    6.7383 C    0  0  0  0  0  0  0  0  0  0  0  0
    4.0485    1.4077    0.7081 C    0  0  0  0  0  0  0  0  0  0  0  0
    0.1026    2.2590    3.1299 H    0  0  0  0  0  0  0  0  0  0  0  0
    0.2736    0.6696    2.4097 H    0  0  0  0  0  0  0  0  0  0  0  0
    0.2681    0.3508    4.7382 H    0  0  0  0  0  0  0  0  0  0  0  0
    1.9231    0.0509    4.2516 H    0  0  0  0  0  0  0  0  0  0  0  0
    0.9569    2.7031    5.4204 H    0  0  0  0  0  0  0  0  0  0  0  0
    2.5314    2.7365    2.6259 H    0  0  0  0  0  0  0  0  0  0  0  0
    1.5417    2.4292    1.2136 H    0  0  0  0  0  0  0  0  0  0  0  0
    2.0523    0.2445    6.8543 H    0  0  0  0  0  0  0  0  0  0  0  0
    0.5852    1.1510    7.2469 H    0  0  0  0  0  0  0  0  0  0  0  0
    3.1207    3.3450    4.7780 H    0  0  0  0  0  0  0  0  0  0  0  0
    3.7075    1.6919    4.6947 H    0  0  0  0  0  0  0  0  0  0  0  0
    3.4253    0.3809    2.5014 H    0  0  0  0  0  0  0  0  0  0  0  0
    2.3951    0.0719    1.1143 H    0  0  0  0  0  0  0  0  0  0  0  0
    2.7934    1.7942    8.6449 H    0  0  0  0  0  0  0  0  0  0  0  0
    1.9282    3.1315    7.8817 H    0  0  0  0  0  0  0  0  0  0  0  0
    4.1336    3.4684    6.9327 H    0  0  0  0  0  0  0  0  0  0  0  0
    4.4561    1.7407    6.8923 H    0  0  0  0  0  0  0  0  0  0  0  0
    3.6153    1.8654   -0.1900 H    0  0  0  0  0  0  0  0  0  0  0  0
    4.7313    0.6148    0.3818 H    0  0  0  0  0  0  0  0  0  0  0  0
    4.6474    2.1760    1.2127 H    0  0  0  0  0  0  0  0  0  0  0  0
  1  2  1  0  0  0  0
  1  4  1  0  0  0  0
  1 11  1  0  0  0  0
  1 12  1  0  0  0  0
  2  3  1  0  0  0  0
  2 13  1  0  0  0  0
  2 14  1  0  0  0  0
  3  6  1  0  0  0  0
  3 15  1  0  0  0  0
  4  7  1  0  0  0  0
  4 16  1  0  0  0  0
  4 17  1  0  0  0  0
  5  3  1  0  0  0  0
  5 18  1  0  0  0  0
  5 19  1  0  0  0  0
  6 20  1  0  0  0  0
  6 21  1  0  0  0  0
  7 10  1  0  0  0  0
  7 22  1  0  0  0  0
  7 23  1  0  0  0  0
  8  5  1  0  0  0  0
  8 24  1  0  0  0  0
  8 25  1  0  0  0  0
  9  6  1  0  0  0  0
  9  8  1  0  0  0  0
  9 26  1  0  0  0  0
  9 27  1  0  0  0  0
 10 28  1  0  0  0  0
 10 29  1  0  0  0  0
 10 30  1  0  0  0  0
M  END
