
 OpenBabel06142413333D

 32 34  0  0  1  0  0  0  0  0999 V2000
    0.0758   -0.7676   -0.2110 O   0  0  0  0  0  0  0  0  0  0  0  0
    1.6548    2.9640    0.3375 O   0  0  0  0  0  0  0  0  0  0  0  0
    4.1282    1.8500    0.3090 O   0  0  0  0  0  0  0  0  0  0  0  0
    4.2613   -2.8850   -0.3390 O   0  0  0  0  0  0  0  0  0  0  0  0
   -6.2371   -0.5081   -0.2295 O   0  0  0  0  0  0  0  0  0  0  0  0
   -0.6520    0.2928    0.4255 C   0  0  1  0  0  0  0  0  0  0  0  0
   -0.2489    1.6348   -0.1582 C   0  0  0  0  0  0  0  0  0  0  0  0
   -2.1385    0.0505    0.2330 C   0  0  0  0  0  0  0  0  0  0  0  0
    2.0719    0.6260    0.0516 C   0  0  0  0  0  0  0  0  0  0  0  0
    1.2144    1.8407    0.1203 C   0  0  0  0  0  0  0  0  0  0  0  0
    1.4355   -0.6086   -0.1328 C   0  0  0  0  0  0  0  0  0  0  0  0
    3.4723    0.6665    0.1255 C   0  0  0  0  0  0  0  0  0  0  0  0
    2.1856   -1.7761   -0.2766 C   0  0  0  0  0  0  0  0  0  0  0  0
   -3.0345    0.3318    1.2770 C   0  0  0  0  0  0  0  0  0  0  0  0
   -2.6521   -0.4178   -0.9884 C   0  0  0  0  0  0  0  0  0  0  0  0
    4.2251   -0.5061    0.0021 C   0  0  0  0  0  0  0  0  0  0  0  0
    3.5715   -1.7170   -0.2036 C   0  0  0  0  0  0  0  0  0  0  0  0
   -4.4065    0.1377    1.1063 C   0  0  0  0  0  0  0  0  0  0  0  0
   -4.0250   -0.6127   -1.1587 C   0  0  0  0  0  0  0  0  0  0  0  0
   -4.8906   -0.3331   -0.1074 C   0  0  0  0  0  0  0  0  0  0  0  0
   -0.4290    0.2468    1.5017 H   0  0  0  0  0  0  0  0  0  0  0  0
   -0.8170    2.4469    0.3097 H   0  0  0  0  0  0  0  0  0  0  0  0
   -0.3952    1.6805   -1.2437 H   0  0  0  0  0  0  0  0  0  0  0  0
    1.6893   -2.7301   -0.4342 H   0  0  0  0  0  0  0  0  0  0  0  0
   -2.6728    0.7051    2.2328 H   0  0  0  0  0  0  0  0  0  0  0  0
   -1.9803   -0.6386   -1.8159 H   0  0  0  0  0  0  0  0  0  0  0  0
    5.3078   -0.4723    0.0581 H   0  0  0  0  0  0  0  0  0  0  0  0
   -5.0954    0.3542    1.9179 H   0  0  0  0  0  0  0  0  0  0  0  0
   -4.3943   -0.9797   -2.1109 H   0  0  0  0  0  0  0  0  0  0  0  0
    5.0882    1.7157    0.3313 H   0  0  0  0  0  0  0  0  0  0  0  0
    5.2141   -2.7092   -0.2700 H   0  0  0  0  0  0  0  0  0  0  0  0
   -6.4249   -0.8453   -1.1206 H   0  0  0  0  0  0  0  0  0  0  0  0
  1  6  1  0  0  0  0
  1 11  1  0  0  0  0
  2 10  2  0  0  0  0
  3 12  1  0  0  0  0
  3 30  1  0  0  0  0
  4 17  1  0  0  0  0
  4 31  1  0  0  0  0
  5 20  1  0  0  0  0
  5 32  1  0  0  0  0
  6  7  1  0  0  0  0
  6  8  1  0  0  0  0
  6 21  1  1  0  0  0
  7 10  1  0  0  0  0
  7 22  1  0  0  0  0
  7 23  1  0  0  0  0
  8 14  2  0  0  0  0
  8 15  1  0  0  0  0
  9 10  1  0  0  0  0
  9 11  1  0  0  0  0
  9 12  2  0  0  0  0
 11 13  2  0  0  0  0
 12 16  1  0  0  0  0
 13 17  1  0  0  0  0
 13 24  1  0  0  0  0
 14 18  1  0  0  0  0
 14 25  1  0  0  0  0
 15 19  2  0  0  0  0
 15 26  1  0  0  0  0
 16 17  2  0  0  0  0
 16 27  1  0  0  0  0
 18 20  2  0  0  0  0
 18 28  1  0  0  0  0
 19 20  1  0  0  0  0
 19 29  1  0  0  0  0
M  END
