
 OpenBabel11042215583D

 24 24  0  0  0  0  0  0  0  0999 V2000
    3.0438   -0.1820    0.4459 O   0  0  0  0  0  0  0  0  0  0  0  0
   -0.9687    2.3322   -0.0609 O   0  0  0  0  0  0  0  0  0  0  0  0
    4.7234   -0.3337   -1.1134 O   0  5  0  0  0  0  0  0  0  0  0  0
    4.2868   -1.9545    0.2603 O   0  0  0  0  0  0  0  0  0  0  0  0
    0.3624    0.7275    0.7538 N   0  0  0  0  0  0  0  0  0  0  0  0
   -4.3230   -0.0395   -0.5339 N   0  0  0  0  0  0  0  0  0  0  0  0
    4.0270   -0.8561   -0.1248 N   0  3  0  0  0  0  0  0  0  0  0  0
    1.5199    1.5957    0.9078 C   0  0  0  0  0  0  0  0  0  0  0  0
    2.6835    1.0920    0.0557 C   0  0  0  0  0  0  0  0  0  0  0  0
   -0.8405    1.1603    0.2685 C   0  0  0  0  0  0  0  0  0  0  0  0
   -2.0227    0.2476    0.1198 C   0  0  0  0  0  0  0  0  0  0  0  0
   -1.9903   -1.1211    0.4642 C   0  0  0  0  0  0  0  0  0  0  0  0
   -3.2348    0.7617   -0.3873 C   0  0  0  0  0  0  0  0  0  0  0  0
   -3.1248   -1.9186    0.3021 C   0  0  0  0  0  0  0  0  0  0  0  0
   -4.2936   -1.3550   -0.2032 C   0  0  0  0  0  0  0  0  0  0  0  0
    1.8224    1.6118    1.9771 H   0  0  0  0  0  0  0  0  0  0  0  0
    1.2975    2.6412    0.6048 H   0  0  0  0  0  0  0  0  0  0  0  0
    3.5498    1.7767    0.1861 H   0  0  0  0  0  0  0  0  0  0  0  0
    2.3825    1.0882   -1.0149 H   0  0  0  0  0  0  0  0  0  0  0  0
    0.4897   -0.2509    1.0378 H   0  0  0  0  0  0  0  0  0  0  0  0
   -1.1090   -1.5999    0.8583 H   0  0  0  0  0  0  0  0  0  0  0  0
   -3.3215    1.8030   -0.6691 H   0  0  0  0  0  0  0  0  0  0  0  0
   -3.0972   -2.9678    0.5671 H   0  0  0  0  0  0  0  0  0  0  0  0
   -5.1788   -1.9632   -0.3332 H   0  0  0  0  0  0  0  0  0  0  0  0
  1  7  1  0  0  0  0
  1  9  1  0  0  0  0
  2 10  2  0  0  0  0
  3  7  1  0  0  0  0
  4  7  2  0  0  0  0
  5  8  1  0  0  0  0
  5 10  1  0  0  0  0
  5 20  1  0  0  0  0
  6 13  1  0  0  0  0
  6 15  2  0  0  0  0
  8  9  1  0  0  0  0
  8 16  1  0  0  0  0
  8 17  1  0  0  0  0
  9 18  1  0  0  0  0
  9 19  1  0  0  0  0
 10 11  1  0  0  0  0
 11 12  1  0  0  0  0
 11 13  2  0  0  0  0
 12 14  2  0  0  0  0
 12 21  1  0  0  0  0
 13 22  1  0  0  0  0
 14 15  1  0  0  0  0
 14 23  1  0  0  0  0
 15 24  1  0  0  0  0
M  CHG  2   3  -1   7   1
M  END
