
 OpenBabel11292312203D

 40 40  0  0  0  0  0  0  0  0999 V2000
    1.8124    0.4419    0.2202 Si  0  0  0  0  0  0  0  0  0  0  0  0
    0.7123    1.5185    0.6233 O   0  0  0  0  0  0  0  0  0  0  0  0
    1.1876   -1.0189    0.3072 O   0  0  0  0  0  0  0  0  0  0  0  0
    2.4149    0.7710   -1.5158 C   0  0  0  0  0  0  0  0  0  0  0  0
    3.2567    0.5661    1.3941 C   0  0  0  0  0  0  0  0  0  0  0  0
   -0.6255    2.2629    0.1887 Si  0  0  0  0  0  0  0  0  0  0  0  0
   -1.6308    1.2147   -0.4620 O   0  0  0  0  0  0  0  0  0  0  0  0
   -0.2137    3.5884   -1.0582 C   0  0  0  0  0  0  0  0  0  0  0  0
   -1.4259    3.0321    1.6882 C   0  0  0  0  0  0  0  0  0  0  0  0
    0.1853   -2.0656   -0.3506 Si  0  0  0  0  0  0  0  0  0  0  0  0
    0.9868   -2.8208   -1.8567 C   0  0  0  0  0  0  0  0  0  0  0  0
   -0.2207   -3.4017    0.8866 C   0  0  0  0  0  0  0  0  0  0  0  0
   -1.1556   -1.3225   -0.7781 O   0  0  0  0  0  0  0  0  0  0  0  0
   -2.2538   -0.2464   -0.3687 Si  0  0  0  0  0  0  0  0  0  0  0  0
   -2.8432   -0.5737    1.3722 C   0  0  0  0  0  0  0  0  0  0  0  0
   -3.7065   -0.3736   -1.5319 C   0  0  0  0  0  0  0  0  0  0  0  0
    1.5609    0.6989   -2.2205 H   0  0  0  0  0  0  0  0  0  0  0  0
    2.8528    1.7888   -1.5683 H   0  0  0  0  0  0  0  0  0  0  0  0
    3.1841    0.0199   -1.7887 H   0  0  0  0  0  0  0  0  0  0  0  0
    4.0249   -0.1838    1.1150 H   0  0  0  0  0  0  0  0  0  0  0  0
    3.6938    1.5840    1.3352 H   0  0  0  0  0  0  0  0  0  0  0  0
    2.9085    0.3719    2.4293 H   0  0  0  0  0  0  0  0  0  0  0  0
    0.2591    3.1242   -1.9478 H   0  0  0  0  0  0  0  0  0  0  0  0
   -1.1438    4.1102   -1.3633 H   0  0  0  0  0  0  0  0  0  0  0  0
    0.4886    4.3169   -0.6039 H   0  0  0  0  0  0  0  0  0  0  0  0
   -2.3592    3.5488    1.3842 H   0  0  0  0  0  0  0  0  0  0  0  0
   -1.6656    2.2393    2.4261 H   0  0  0  0  0  0  0  0  0  0  0  0
   -0.7284    3.7639    2.1447 H   0  0  0  0  0  0  0  0  0  0  0  0
    1.2230   -2.0217   -2.5890 H   0  0  0  0  0  0  0  0  0  0  0  0
    1.9222   -3.3364   -1.5575 H   0  0  0  0  0  0  0  0  0  0  0  0
    0.2914   -3.5516   -2.3180 H   0  0  0  0  0  0  0  0  0  0  0  0
    0.7114   -3.9226    1.1870 H   0  0  0  0  0  0  0  0  0  0  0  0
   -0.6943   -2.9458    1.7801 H   0  0  0  0  0  0  0  0  0  0  0  0
   -0.9210   -4.1293    0.4276 H   0  0  0  0  0  0  0  0  0  0  0  0
   -1.9841   -0.4998    2.0704 H   0  0  0  0  0  0  0  0  0  0  0  0
   -3.6111    0.1770    1.6497 H   0  0  0  0  0  0  0  0  0  0  0  0
   -3.2798   -1.5918    1.4293 H   0  0  0  0  0  0  0  0  0  0  0  0
   -4.1423   -1.3918   -1.4684 H   0  0  0  0  0  0  0  0  0  0  0  0
   -4.4734    0.3760   -1.2482 H   0  0  0  0  0  0  0  0  0  0  0  0
   -3.3661   -0.1805   -2.5699 H   0  0  0  0  0  0  0  0  0  0  0  0
  1  4  1  0  0  0  0
  1  5  1  0  0  0  0
  1  2  1  0  0  0  0
  1  3  1  0  0  0  0
  2  6  1  0  0  0  0
  4 17  1  0  0  0  0
  4 18  1  0  0  0  0
  4 19  1  0  0  0  0
  5 20  1  0  0  0  0
  5 21  1  0  0  0  0
  5 22  1  0  0  0  0
  6  8  1  0  0  0  0
  6  9  1  0  0  0  0
  6  7  1  0  0  0  0
  7 14  1  0  0  0  0
  8 23  1  0  0  0  0
  8 24  1  0  0  0  0
  8 25  1  0  0  0  0
  9 26  1  0  0  0  0
  9 27  1  0  0  0  0
  9 28  1  0  0  0  0
 10 11  1  0  0  0  0
 10 12  1  0  0  0  0
 10  3  1  0  0  0  0
 11 29  1  0  0  0  0
 11 30  1  0  0  0  0
 11 31  1  0  0  0  0
 12 32  1  0  0  0  0
 12 33  1  0  0  0  0
 12 34  1  0  0  0  0
 13 10  1  0  0  0  0
 14 15  1  0  0  0  0
 14 16  1  0  0  0  0
 14 13  1  0  0  0  0
 15 35  1  0  0  0  0
 15 36  1  0  0  0  0
 15 37  1  0  0  0  0
 16 38  1  0  0  0  0
 16 39  1  0  0  0  0
 16 40  1  0  0  0  0
M  END
