
 OpenBabel10222213263D

 40 40  0  0  0  0  0  0  0  0999 V2000
   -1.2320   -0.4158    0.0669 O   0  0  0  0  0  0  0  0  0  0  0  0
   -1.2978    1.0465   -1.6329 O   0  0  0  0  0  0  0  0  0  0  0  0
   -6.9556    2.3722    0.9396 O   0  0  0  0  0  0  0  0  0  0  0  0
    3.6066    0.5748    0.2084 C   0  0  0  0  0  0  0  0  0  0  0  0
    5.0042   -0.0118   -0.0244 C   0  0  0  0  0  0  0  0  0  0  0  0
    2.5183   -0.4601   -0.1009 C   0  0  0  0  0  0  0  0  0  0  0  0
    6.0942    1.0217    0.2831 C   0  0  0  0  0  0  0  0  0  0  0  0
    1.1194    0.1242    0.1288 C   0  0  0  0  0  0  0  0  0  0  0  0
    7.4904    0.4334    0.0488 C   0  0  0  0  0  0  0  0  0  0  0  0
    0.0339   -0.9177   -0.1760 C   0  0  0  0  0  0  0  0  0  0  0  0
    8.5788    1.4587    0.3530 C   0  0  0  0  0  0  0  0  0  0  0  0
   -1.8420    0.5690   -0.6462 C   0  0  0  0  0  0  0  0  0  0  0  0
   -3.1848    1.0489   -0.2359 C   0  0  0  0  0  0  0  0  0  0  0  0
   -3.8229    0.4979    0.8902 C   0  0  0  0  0  0  0  0  0  0  0  0
   -3.8413    2.0593   -0.9635 C   0  0  0  0  0  0  0  0  0  0  0  0
   -5.0887    0.9472    1.2788 C   0  0  0  0  0  0  0  0  0  0  0  0
   -5.1070    2.5063   -0.5721 C   0  0  0  0  0  0  0  0  0  0  0  0
   -5.7350    1.9509    0.5512 C   0  0  0  0  0  0  0  0  0  0  0  0
    3.5156    0.8974    1.2692 H   0  0  0  0  0  0  0  0  0  0  0  0
    3.4671    1.4616   -0.4486 H   0  0  0  0  0  0  0  0  0  0  0  0
    5.0942   -0.3348   -1.0852 H   0  0  0  0  0  0  0  0  0  0  0  0
    5.1439   -0.8987    0.6326 H   0  0  0  0  0  0  0  0  0  0  0  0
    2.6585   -1.3468    0.5562 H   0  0  0  0  0  0  0  0  0  0  0  0
    2.6100   -0.7828   -1.1616 H   0  0  0  0  0  0  0  0  0  0  0  0
    6.0053    1.3446    1.3440 H   0  0  0  0  0  0  0  0  0  0  0  0
    5.9549    1.9086   -0.3739 H   0  0  0  0  0  0  0  0  0  0  0  0
    1.0218    0.4462    1.1889 H   0  0  0  0  0  0  0  0  0  0  0  0
    0.9875    1.0122   -0.5248 H   0  0  0  0  0  0  0  0  0  0  0  0
    7.6380   -0.4518    0.7053 H   0  0  0  0  0  0  0  0  0  0  0  0
    7.5873    0.1116   -1.0112 H   0  0  0  0  0  0  0  0  0  0  0  0
    0.1045   -1.2698   -1.2288 H   0  0  0  0  0  0  0  0  0  0  0  0
    0.1886   -1.7922    0.4916 H   0  0  0  0  0  0  0  0  0  0  0  0
    8.5192    1.7818    1.4142 H   0  0  0  0  0  0  0  0  0  0  0  0
    8.4682    2.3463   -0.3058 H   0  0  0  0  0  0  0  0  0  0  0  0
    9.5769    1.0059    0.1748 H   0  0  0  0  0  0  0  0  0  0  0  0
   -3.3457   -0.2807    1.4720 H   0  0  0  0  0  0  0  0  0  0  0  0
   -3.3779    2.5046   -1.8350 H   0  0  0  0  0  0  0  0  0  0  0  0
   -5.5677    0.5134    2.1476 H   0  0  0  0  0  0  0  0  0  0  0  0
   -5.5980    3.2843   -1.1432 H   0  0  0  0  0  0  0  0  0  0  0  0
   -7.4368    3.0641    0.4635 H   0  0  0  0  0  0  0  0  0  0  0  0
  1 10  1  0  0  0  0
  1 12  1  0  0  0  0
  2 12  2  0  0  0  0
  3 18  1  0  0  0  0
  3 40  1  0  0  0  0
  4  5  1  0  0  0  0
  4  6  1  0  0  0  0
  4 19  1  0  0  0  0
  4 20  1  0  0  0  0
  5  7  1  0  0  0  0
  5 21  1  0  0  0  0
  5 22  1  0  0  0  0
  6  8  1  0  0  0  0
  6 23  1  0  0  0  0
  6 24  1  0  0  0  0
  7  9  1  0  0  0  0
  7 25  1  0  0  0  0
  7 26  1  0  0  0  0
  8 10  1  0  0  0  0
  8 27  1  0  0  0  0
  8 28  1  0  0  0  0
  9 11  1  0  0  0  0
  9 29  1  0  0  0  0
  9 30  1  0  0  0  0
 10 31  1  0  0  0  0
 10 32  1  0  0  0  0
 11 33  1  0  0  0  0
 11 34  1  0  0  0  0
 11 35  1  0  0  0  0
 12 13  1  0  0  0  0
 13 14  2  0  0  0  0
 13 15  1  0  0  0  0
 14 16  1  0  0  0  0
 14 36  1  0  0  0  0
 15 17  2  0  0  0  0
 15 37  1  0  0  0  0
 16 18  2  0  0  0  0
 16 38  1  0  0  0  0
 17 18  1  0  0  0  0
 17 39  1  0  0  0  0
M  END
