
 OpenBabel11042215533D

 42 42  0  0  1  0  0  0  0  0999 V2000
   -0.1777   -0.8677   -0.8437 O   0  0  0  0  0  0  0  0  0  0  0  0
   -1.7821    0.0957   -2.9461 O   0  0  0  0  0  0  0  0  0  0  0  0
    2.0421    0.5633   -0.3461 O   0  0  0  0  0  0  0  0  0  0  0  0
   -3.1259    0.3628    0.4931 N   0  0  0  0  0  0  0  0  0  0  0  0
   -2.5507    0.8204   -0.7817 C   0  0  0  0  0  0  0  0  0  0  0  0
   -2.3369   -0.3664   -1.7419 C   0  0  2  0  0  0  0  0  0  0  0  0
   -3.3410    1.4585    1.4590 C   0  0  0  0  0  0  0  0  0  0  0  0
   -1.4055   -1.4276   -1.1397 C   0  0  0  0  0  0  0  0  0  0  0  0
   -2.0084    1.9934    2.0119 C   0  0  0  0  0  0  0  0  0  0  0  0
   -4.1912    0.9441    2.6293 C   0  0  0  0  0  0  0  0  0  0  0  0
    0.8786   -1.5026   -0.2727 C   0  0  0  0  0  0  0  0  0  0  0  0
    2.0390   -0.7540   -0.0108 C   0  0  0  0  0  0  0  0  0  0  0  0
    0.8420   -2.8711    0.0659 C   0  0  0  0  0  0  0  0  0  0  0  0
    3.1511   -1.3826    0.5870 C   0  0  0  0  0  0  0  0  0  0  0  0
    1.9502   -3.4809    0.6570 C   0  0  0  0  0  0  0  0  0  0  0  0
    3.1018   -2.7385    0.9171 C   0  0  0  0  0  0  0  0  0  0  0  0
    3.0796    1.4512   -0.1498 C   0  0  0  0  0  0  0  0  0  0  0  0
    2.6792    2.7931   -0.6881 C   0  0  0  0  0  0  0  0  0  0  0  0
    2.6225    3.8814    0.0848 C   0  0  0  0  0  0  0  0  0  0  0  0
   -1.5684    1.3076   -0.6198 H   0  0  0  0  0  0  0  0  0  0  0  0
   -3.2330    1.5573   -1.2621 H   0  0  0  0  0  0  0  0  0  0  0  0
   -3.3138   -0.8640   -1.9477 H   0  0  0  0  0  0  0  0  0  0  0  0
   -3.8997    2.2921    0.9758 H   0  0  0  0  0  0  0  0  0  0  0  0
   -4.0527   -0.0721    0.2694 H   0  0  0  0  0  0  0  0  0  0  0  0
   -1.2764   -2.2571   -1.8692 H   0  0  0  0  0  0  0  0  0  0  0  0
   -1.8625   -1.8374   -0.2124 H   0  0  0  0  0  0  0  0  0  0  0  0
   -2.2005    2.7864    2.7659 H   0  0  0  0  0  0  0  0  0  0  0  0
   -1.4310    1.1748    2.4930 H   0  0  0  0  0  0  0  0  0  0  0  0
   -1.3861    2.4529    1.2197 H   0  0  0  0  0  0  0  0  0  0  0  0
   -5.1753    0.5834    2.2616 H   0  0  0  0  0  0  0  0  0  0  0  0
   -4.3775    1.7592    3.3611 H   0  0  0  0  0  0  0  0  0  0  0  0
   -3.6760    0.1061    3.1467 H   0  0  0  0  0  0  0  0  0  0  0  0
   -2.5249    0.4936   -3.4717 H   0  0  0  0  0  0  0  0  0  0  0  0
   -0.0375   -3.4719   -0.1227 H   0  0  0  0  0  0  0  0  0  0  0  0
    4.0576   -0.8328    0.8015 H   0  0  0  0  0  0  0  0  0  0  0  0
    1.9155   -4.5316    0.9148 H   0  0  0  0  0  0  0  0  0  0  0  0
    3.9587   -3.2147    1.3762 H   0  0  0  0  0  0  0  0  0  0  0  0
    3.9811    1.1070   -0.7010 H   0  0  0  0  0  0  0  0  0  0  0  0
    3.3177    1.5120    0.9355 H   0  0  0  0  0  0  0  0  0  0  0  0
    2.4273    2.8789   -1.7412 H   0  0  0  0  0  0  0  0  0  0  0  0
    2.3278    4.8343   -0.3429 H   0  0  0  0  0  0  0  0  0  0  0  0
    2.8662    3.8358    1.1417 H   0  0  0  0  0  0  0  0  0  0  0  0
  1  8  1  0  0  0  0
  1 11  1  0  0  0  0
  2  6  1  0  0  0  0
  2 33  1  0  0  0  0
  3 12  1  0  0  0  0
  3 17  1  0  0  0  0
  4  5  1  0  0  0  0
  4  7  1  0  0  0  0
  4 24  1  0  0  0  0
  5  6  1  0  0  0  0
  5 20  1  0  0  0  0
  5 21  1  0  0  0  0
  6  8  1  0  0  0  0
  6 22  1  6  0  0  0
  7  9  1  0  0  0  0
  7 10  1  0  0  0  0
  7 23  1  0  0  0  0
  8 25  1  0  0  0  0
  8 26  1  0  0  0  0
  9 27  1  0  0  0  0
  9 28  1  0  0  0  0
  9 29  1  0  0  0  0
 10 30  1  0  0  0  0
 10 31  1  0  0  0  0
 10 32  1  0  0  0  0
 11 12  1  0  0  0  0
 11 13  2  0  0  0  0
 12 14  2  0  0  0  0
 13 15  1  0  0  0  0
 13 34  1  0  0  0  0
 14 16  1  0  0  0  0
 14 35  1  0  0  0  0
 15 16  2  0  0  0  0
 15 36  1  0  0  0  0
 16 37  1  0  0  0  0
 17 18  1  0  0  0  0
 17 38  1  0  0  0  0
 17 39  1  0  0  0  0
 18 19  2  0  0  0  0
 18 40  1  0  0  0  0
 19 41  1  0  0  0  0
 19 42  1  0  0  0  0
M  END
