
 OpenBabel08312114483D

 20 20  0  0  0  0  0  0  0  0999 V2000
    0.8114   -0.4577   -0.8803 C   0  0  0  0  0  0  0  0  0  0  0  0
    0.2614   -0.3533    0.3442 C   0  0  0  0  0  0  0  0  0  0  0  0
   -1.1843   -0.5517    0.6492 C   0  0  0  0  0  0  0  0  0  0  0  0
    2.2570   -0.2467   -1.1080 C   0  0  0  0  0  0  0  0  0  0  0  0
   -1.6059   -0.4074    1.9833 C   0  0  0  0  0  0  0  0  0  0  0  0
   -2.1468   -0.8760   -0.3310 C   0  0  0  0  0  0  0  0  0  0  0  0
    3.0821    0.0611   -0.0833 O   0  0  0  0  0  0  0  0  0  0  0  0
    2.7072   -0.3530   -2.2386 O   0  0  0  0  0  0  0  0  0  0  0  0
   -2.9482   -0.5809    2.3321 C   0  0  0  0  0  0  0  0  0  0  0  0
   -3.4889   -1.0488    0.0225 C   0  0  0  0  0  0  0  0  0  0  0  0
   -3.8948   -0.9026    1.3514 C   0  0  0  0  0  0  0  0  0  0  0  0
   -5.1931   -1.0731    1.6729 O   0  0  0  0  0  0  0  0  0  0  0  0
    0.2113   -0.7013   -1.7474 H   0  0  0  0  0  0  0  0  0  0  0  0
    0.9108   -0.1062    1.1802 H   0  0  0  0  0  0  0  0  0  0  0  0
   -0.8938   -0.1589    2.7610 H   0  0  0  0  0  0  0  0  0  0  0  0
   -1.8854   -1.0000   -1.3704 H   0  0  0  0  0  0  0  0  0  0  0  0
    4.0296    0.2011   -0.2219 H   0  0  0  0  0  0  0  0  0  0  0  0
   -3.2502   -0.4649    3.3655 H   0  0  0  0  0  0  0  0  0  0  0  0
   -4.2159   -1.2974   -0.7407 H   0  0  0  0  0  0  0  0  0  0  0  0
   -5.5149   -0.9808    2.5811 H   0  0  0  0  0  0  0  0  0  0  0  0
  1  2  2  0  0  0  0
  1  4  1  0  0  0  0
  1 13  1  0  0  0  0
  2  3  1  0  0  0  0
  2 14  1  0  0  0  0
  3  6  1  0  0  0  0
  4  7  1  0  0  0  0
  4  8  2  0  0  0  0
  5  3  2  0  0  0  0
  5 15  1  0  0  0  0
  6 10  2  0  0  0  0
  6 16  1  0  0  0  0
  7 17  1  0  0  0  0
  9  5  1  0  0  0  0
  9 18  1  0  0  0  0
 10 11  1  0  0  0  0
 10 19  1  0  0  0  0
 11  9  2  0  0  0  0
 11 12  1  0  0  0  0
 12 20  1  0  0  0  0
M  END
