
 OpenBabel09142118353D

 28 29  0  0  0  0  0  0  0  0999 V2000
    7.3614    2.8166   -1.0355 C   0  0  0  0  0  0  0  0  0  0  0  0
    6.3769    1.6916   -0.6987 C   0  0  0  0  0  0  0  0  0  0  0  0
    8.5866    2.8047   -0.1152 C   0  0  0  0  0  0  0  0  0  0  0  0
    6.6976    4.2183   -1.1955 C   0  0  0  0  0  0  0  0  0  0  0  0
    9.8468    2.4919   -0.6689 C   0  0  0  0  0  0  0  0  0  0  0  0
    8.5226    3.0933    1.2649 C   0  0  0  0  0  0  0  0  0  0  0  0
    6.1918    0.6506   -1.6339 C   0  0  0  0  0  0  0  0  0  0  0  0
    5.6391    1.6409    0.5035 C   0  0  0  0  0  0  0  0  0  0  0  0
    7.9079    5.3972   -1.7751 Cl  0  0  0  0  0  0  0  0  0  0  0  0
    5.4125    4.1403   -2.4338 Cl  0  0  0  0  0  0  0  0  0  0  0  0
    5.9647    4.8983    0.2833 Cl  0  0  0  0  0  0  0  0  0  0  0  0
    9.6753    3.0674    2.0558 C   0  0  0  0  0  0  0  0  0  0  0  0
   10.9113    2.7543    1.4886 C   0  0  0  0  0  0  0  0  0  0  0  0
   10.9958    2.4670    0.1259 C   0  0  0  0  0  0  0  0  0  0  0  0
   12.3543    2.7234    2.4854 Cl  0  0  0  0  0  0  0  0  0  0  0  0
    5.3063   -0.3991   -1.3763 C   0  0  0  0  0  0  0  0  0  0  0  0
    4.5869   -0.4315   -0.1812 C   0  0  0  0  0  0  0  0  0  0  0  0
    4.7540    0.5886    0.7564 C   0  0  0  0  0  0  0  0  0  0  0  0
    3.4750   -1.7493    0.1410 Cl  0  0  0  0  0  0  0  0  0  0  0  0
    7.7427    2.5953   -2.0578 H   0  0  0  0  0  0  0  0  0  0  0  0
    9.9473    2.2639   -1.7227 H   0  0  0  0  0  0  0  0  0  0  0  0
    7.5988    3.3449    1.7523 H   0  0  0  0  0  0  0  0  0  0  0  0
    6.7346    0.6452   -2.5709 H   0  0  0  0  0  0  0  0  0  0  0  0
    5.7252    2.4014    1.2575 H   0  0  0  0  0  0  0  0  0  0  0  0
    9.6050    3.2928    3.1125 H   0  0  0  0  0  0  0  0  0  0  0  0
   11.9517    2.2239   -0.3205 H   0  0  0  0  0  0  0  0  0  0  0  0
    5.1809   -1.1870   -2.1081 H   0  0  0  0  0  0  0  0  0  0  0  0
    4.1966    0.5687    1.6844 H   0  0  0  0  0  0  0  0  0  0  0  0
  1  2  1  0  0  0  0
  1  3  1  0  0  0  0
  1  4  1  0  0  0  0
  1 20  1  0  0  0  0
  2  7  1  0  0  0  0
  2  8  2  0  0  0  0
  3  5  1  0  0  0  0
  3  6  2  0  0  0  0
  4  9  1  0  0  0  0
  4 10  1  0  0  0  0
  4 11  1  0  0  0  0
  5 14  2  0  0  0  0
  5 21  1  0  0  0  0
  6 22  1  0  0  0  0
  7 16  2  0  0  0  0
  7 23  1  0  0  0  0
  8 24  1  0  0  0  0
 12  6  1  0  0  0  0
 12 25  1  0  0  0  0
 13 15  1  0  0  0  0
 13 12  2  0  0  0  0
 14 13  1  0  0  0  0
 14 26  1  0  0  0  0
 16 17  1  0  0  0  0
 16 27  1  0  0  0  0
 17 19  1  0  0  0  0
 17 18  2  0  0  0  0
 18  8  1  0  0  0  0
 18 28  1  0  0  0  0
M  END
