
 OpenBabel05312318243D

 26 26  0  0  0  0  0  0  0  0999 V2000
    3.3340    1.3893    0.6140 O   0  0  0  0  0  0  0  0  0  0  0  0
    2.0775    3.7281   -0.0400 O   0  0  0  0  0  0  0  0  0  0  0  0
   -0.8263   -1.2094   -0.0245 C   0  0  0  0  0  0  0  0  0  0  0  0
   -0.0714    0.1372   -0.0378 C   0  0  0  0  0  0  0  0  0  0  0  0
   -0.7658   -1.8195    1.3927 C   0  0  0  0  0  0  0  0  0  0  0  0
   -0.1699   -2.1776   -1.0324 C   0  0  0  0  0  0  0  0  0  0  0  0
   -2.3182   -1.0692   -0.4118 C   0  0  0  0  0  0  0  0  0  0  0  0
    1.3023    0.1720    0.2946 C   0  0  0  0  0  0  0  0  0  0  0  0
   -0.6963    1.3620   -0.3722 C   0  0  0  0  0  0  0  0  0  0  0  0
    2.0231    1.3756    0.2940 C   0  0  0  0  0  0  0  0  0  0  0  0
    0.0228    2.5596   -0.3723 C   0  0  0  0  0  0  0  0  0  0  0  0
    1.3816    2.5721   -0.0403 C   0  0  0  0  0  0  0  0  0  0  0  0
    0.2793   -2.0055    1.7161 H   0  0  0  0  0  0  0  0  0  0  0  0
   -1.2405   -1.1354    2.1291 H   0  0  0  0  0  0  0  0  0  0  0  0
   -1.3015   -2.7931    1.4256 H   0  0  0  0  0  0  0  0  0  0  0  0
   -0.6961   -3.1569   -1.0379 H   0  0  0  0  0  0  0  0  0  0  0  0
   -0.2113   -1.7539   -2.0592 H   0  0  0  0  0  0  0  0  0  0  0  0
    0.8930   -2.3744   -0.7813 H   0  0  0  0  0  0  0  0  0  0  0  0
   -2.8255   -2.0584   -0.3904 H   0  0  0  0  0  0  0  0  0  0  0  0
   -2.4252   -0.6618   -1.4404 H   0  0  0  0  0  0  0  0  0  0  0  0
   -2.8531   -0.4047    0.3008 H   0  0  0  0  0  0  0  0  0  0  0  0
    1.8252   -0.7376    0.5573 H   0  0  0  0  0  0  0  0  0  0  0  0
   -1.7412    1.4189   -0.6373 H   0  0  0  0  0  0  0  0  0  0  0  0
   -0.4816    3.4820   -0.6323 H   0  0  0  0  0  0  0  0  0  0  0  0
    3.8163    0.5844    0.8513 H   0  0  0  0  0  0  0  0  0  0  0  0
    1.6690    4.5761   -0.2655 H   0  0  0  0  0  0  0  0  0  0  0  0
  1 10  1  0  0  0  0
  1 25  1  0  0  0  0
  2 12  1  0  0  0  0
  2 26  1  0  0  0  0
  3  4  1  0  0  0  0
  3  5  1  0  0  0  0
  3  6  1  0  0  0  0
  3  7  1  0  0  0  0
  4  8  2  0  0  0  0
  4  9  1  0  0  0  0
  5 13  1  0  0  0  0
  5 14  1  0  0  0  0
  5 15  1  0  0  0  0
  6 16  1  0  0  0  0
  6 17  1  0  0  0  0
  6 18  1  0  0  0  0
  7 19  1  0  0  0  0
  7 20  1  0  0  0  0
  7 21  1  0  0  0  0
  8 10  1  0  0  0  0
  8 22  1  0  0  0  0
  9 11  2  0  0  0  0
  9 23  1  0  0  0  0
 10 12  2  0  0  0  0
 11 12  1  0  0  0  0
 11 24  1  0  0  0  0
M  END
