
 OpenBabel06172410093D

 19 19  0  0  0  0  0  0  0  0999 V2000
    2.1147    0.1892    0.0158 S   0  0  0  0  0  0  0  0  0  0  0  0
    2.5408   -0.7262   -1.2437 O   0  0  0  0  0  0  0  0  0  0  0  0
    2.5126    1.5305   -0.3558 O   0  0  0  0  0  0  0  0  0  0  0  0
    2.5970   -0.4506    1.2179 O   0  0  0  0  0  0  0  0  0  0  0  0
    0.3468    0.1196    0.0379 C   0  0  0  0  0  0  0  0  0  0  0  0
   -2.4424    0.0054    0.0242 C   0  0  0  0  0  0  0  0  0  0  0  0
   -0.3907    1.2815    0.2728 C   0  0  0  0  0  0  0  0  0  0  0  0
   -0.2919   -1.0950   -0.2214 C   0  0  0  0  0  0  0  0  0  0  0  0
   -1.7851    1.2210    0.2618 C   0  0  0  0  0  0  0  0  0  0  0  0
   -1.6864   -1.1477   -0.2301 C   0  0  0  0  0  0  0  0  0  0  0  0
   -3.9420   -0.0478   -0.0187 C   0  0  0  0  0  0  0  0  0  0  0  0
    0.1070    2.2301    0.4620 H   0  0  0  0  0  0  0  0  0  0  0  0
    0.2857   -1.9970   -0.4109 H   0  0  0  0  0  0  0  0  0  0  0  0
   -2.3586    2.1284    0.4413 H   0  0  0  0  0  0  0  0  0  0  0  0
   -2.1823   -2.0948   -0.4336 H   0  0  0  0  0  0  0  0  0  0  0  0
   -4.3070   -1.0326    0.2914 H   0  0  0  0  0  0  0  0  0  0  0  0
   -4.3782    0.6895    0.6635 H   0  0  0  0  0  0  0  0  0  0  0  0
   -4.2943    0.1568   -1.0343 H   0  0  0  0  0  0  0  0  0  0  0  0
    3.0449   -0.1537   -1.8600 H   0  0  0  0  0  0  0  0  0  0  0  0
  1  2  1  0  0  0  0
  1  3  2  0  0  0  0
  1  4  2  0  0  0  0
  1  5  1  0  0  0  0
  2 19  1  0  0  0  0
  5  7  2  0  0  0  0
  5  8  1  0  0  0  0
  6  9  2  0  0  0  0
  6 10  1  0  0  0  0
  6 11  1  0  0  0  0
  7  9  1  0  0  0  0
  7 12  1  0  0  0  0
  8 10  2  0  0  0  0
  8 13  1  0  0  0  0
  9 14  1  0  0  0  0
 10 15  1  0  0  0  0
 11 16  1  0  0  0  0
 11 17  1  0  0  0  0
 11 18  1  0  0  0  0
M  END
