
 OpenBabel11142210463D

 20 20  0  0  0  0  0  0  0  0999 V2000
    3.8263    0.1082   -0.2310 N   0  0  0  0  0  0  0  0  0  0  0  0
    1.5485   -0.1862    0.6374 C   0  0  0  0  0  0  0  0  0  0  0  0
    0.0765   -0.1158    0.3123 C   0  0  0  0  0  0  0  0  0  0  0  0
    2.4102    0.2110   -0.5669 C   0  0  0  0  0  0  0  0  0  0  0  0
   -0.5211    1.1106   -0.0305 C   0  0  0  0  0  0  0  0  0  0  0  0
   -0.7180   -1.2752    0.3559 C   0  0  0  0  0  0  0  0  0  0  0  0
   -1.8854    1.1725   -0.3297 C   0  0  0  0  0  0  0  0  0  0  0  0
   -2.0822   -1.2082    0.0556 C   0  0  0  0  0  0  0  0  0  0  0  0
   -2.6652    0.0142   -0.2878 C   0  0  0  0  0  0  0  0  0  0  0  0
    1.7609    0.4866    1.4963 H   0  0  0  0  0  0  0  0  0  0  0  0
    1.8281   -1.2207    0.9357 H   0  0  0  0  0  0  0  0  0  0  0  0
    2.1820    1.2514   -0.8865 H   0  0  0  0  0  0  0  0  0  0  0  0
    2.1894   -0.4754   -1.4136 H   0  0  0  0  0  0  0  0  0  0  0  0
    0.0670    2.0188   -0.0642 H   0  0  0  0  0  0  0  0  0  0  0  0
   -0.2838   -2.2315    0.6197 H   0  0  0  0  0  0  0  0  0  0  0  0
   -2.3384    2.1195   -0.5935 H   0  0  0  0  0  0  0  0  0  0  0  0
   -2.6877   -2.1046    0.0891 H   0  0  0  0  0  0  0  0  0  0  0  0
   -3.7211    0.0641   -0.5199 H   0  0  0  0  0  0  0  0  0  0  0  0
    4.0532    0.8049    0.5152 H   0  0  0  0  0  0  0  0  0  0  0  0
    4.3870    0.3549   -1.0781 H   0  0  0  0  0  0  0  0  0  0  0  0
  1  4  1  0  0  0  0
  1 19  1  0  0  0  0
  1 20  1  0  0  0  0
  2  3  1  0  0  0  0
  2  4  1  0  0  0  0
  2 10  1  0  0  0  0
  2 11  1  0  0  0  0
  3  5  2  0  0  0  0
  3  6  1  0  0  0  0
  4 12  1  0  0  0  0
  4 13  1  0  0  0  0
  5  7  1  0  0  0  0
  5 14  1  0  0  0  0
  6  8  2  0  0  0  0
  6 15  1  0  0  0  0
  7  9  2  0  0  0  0
  7 16  1  0  0  0  0
  8  9  1  0  0  0  0
  8 17  1  0  0  0  0
  9 18  1  0  0  0  0
M  END
