
 OpenBabel10222208473D

 15 15  0  0  0  0  0  0  0  0999 V2000
   -3.2673   -0.8377   -0.5628 O   0  0  0  0  0  0  0  0  0  0  0  0
    1.3411   -1.8163    0.1580 O   0  0  0  0  0  0  0  0  0  0  0  0
   -0.2981    2.6006    0.8781 O   0  0  0  0  0  0  0  0  0  0  0  0
   -2.0321   -0.4292   -0.2086 C   0  0  0  0  0  0  0  0  0  0  0  0
    0.3160   -0.9403    0.1557 C   0  0  0  0  0  0  0  0  0  0  0  0
   -0.5083    1.3160    0.5262 C   0  0  0  0  0  0  0  0  0  0  0  0
   -0.9760   -1.3476   -0.2101 C   0  0  0  0  0  0  0  0  0  0  0  0
   -1.7948    0.9037    0.1605 C   0  0  0  0  0  0  0  0  0  0  0  0
    0.5465    0.3905    0.5228 C   0  0  0  0  0  0  0  0  0  0  0  0
   -1.1603   -2.3762   -0.4951 H   0  0  0  0  0  0  0  0  0  0  0  0
   -2.6082    1.6190    0.1634 H   0  0  0  0  0  0  0  0  0  0  0  0
    1.5442    0.7039    0.8049 H   0  0  0  0  0  0  0  0  0  0  0  0
   -4.0248   -0.2354   -0.5754 H   0  0  0  0  0  0  0  0  0  0  0  0
    1.2251   -2.7449   -0.0889 H   0  0  0  0  0  0  0  0  0  0  0  0
    0.5754    2.9269    1.1375 H   0  0  0  0  0  0  0  0  0  0  0  0
  1  4  1  0  0  0  0
  1 13  1  0  0  0  0
  2  5  1  0  0  0  0
  2 14  1  0  0  0  0
  3  6  1  0  0  0  0
  3 15  1  0  0  0  0
  4  7  2  0  0  0  0
  4  8  1  0  0  0  0
  5  7  1  0  0  0  0
  5  9  2  0  0  0  0
  6  8  2  0  0  0  0
  6  9  1  0  0  0  0
  7 10  1  0  0  0  0
  8 11  1  0  0  0  0
  9 12  1  0  0  0  0
M  END
