
 OpenBabel05292310223D

  4  3  0  0  0  0  0  0  0  0999 V2000
   -0.9233    1.5288    0.2848 Cl  0  0  0  0  0  0  0  0  0  0  0  0
   -0.8623   -1.5640    0.2850 Cl  0  0  0  0  0  0  0  0  0  0  0  0
    1.7857    0.0352    0.2845 Cl  0  0  0  0  0  0  0  0  0  0  0  0
   -0.0001   -0.0001   -0.8543 P   0  0  0  0  0  0  0  0  0  0  0  0
  1  4  1  0  0  0  0
  2  4  1  0  0  0  0
  3  4  1  0  0  0  0
M  END
