
 OpenBabel09092113473D

  8  7  0  0  0  0  0  0  0  0999 V2000
    0.6749    2.4985    0.5581 P   0  0  0  0  0  0  0  0  0  0  0  0
    0.0988    3.1898   -0.7058 O   0  0  0  0  0  0  0  0  0  0  0  0
    0.6355    0.7929    0.2385 O   0  0  0  0  0  0  0  0  0  0  0  0
   -0.3619    2.9521    1.8742 O   0  0  0  0  0  0  0  0  0  0  0  0
    2.2913    3.1022    0.7469 O   0  0  0  0  0  0  0  0  0  0  0  0
    1.0071    0.3773    1.0569 H   0  0  0  0  0  0  0  0  0  0  0  0
    0.0262    2.4992    2.6647 H   0  0  0  0  0  0  0  0  0  0  0  0
    2.6344    2.6467    1.5564 H   0  0  0  0  0  0  0  0  0  0  0  0
  1  5  1  0  0  0  0
  1  4  1  0  0  0  0
  1  3  1  0  0  0  0
  1  2  2  0  0  0  0
  3  6  1  0  0  0  0
  4  7  1  0  0  0  0
  5  8  1  0  0  0  0
M  END
