
 OpenBabel05312318203D

 17 18  0  0  0  0  0  0  0  0999 V2000
    2.4777   -0.0001    0.0829 O   0  0  0  0  0  0  0  0  0  0  0  0
    0.2515    0.6747    0.0369 C   0  0  0  0  0  0  0  0  0  0  0  0
    0.2515   -0.6748    0.0369 C   0  0  0  0  0  0  0  0  0  0  0  0
    1.6439    1.1527    0.0658 C   0  0  0  0  0  0  0  0  0  0  0  0
    1.6439   -1.1529    0.0658 C   0  0  0  0  0  0  0  0  0  0  0  0
   -0.9363    1.4087    0.0124 C   0  0  0  0  0  0  0  0  0  0  0  0
   -0.9364   -1.4087    0.0124 C   0  0  0  0  0  0  0  0  0  0  0  0
   -2.1524    0.7047   -0.0128 C   0  0  0  0  0  0  0  0  0  0  0  0
   -2.1524   -0.7046   -0.0128 C   0  0  0  0  0  0  0  0  0  0  0  0
    1.8512    1.7558   -0.8434 H   0  0  0  0  0  0  0  0  0  0  0  0
    1.8134    1.7557    0.9828 H   0  0  0  0  0  0  0  0  0  0  0  0
    1.8134   -1.7558    0.9828 H   0  0  0  0  0  0  0  0  0  0  0  0
    1.8511   -1.7560   -0.8434 H   0  0  0  0  0  0  0  0  0  0  0  0
   -0.9214    2.4908    0.0127 H   0  0  0  0  0  0  0  0  0  0  0  0
   -0.9216   -2.4908    0.0127 H   0  0  0  0  0  0  0  0  0  0  0  0
   -3.0895    1.2455   -0.0321 H   0  0  0  0  0  0  0  0  0  0  0  0
   -3.0896   -1.2454   -0.0322 H   0  0  0  0  0  0  0  0  0  0  0  0
  1  4  1  0  0  0  0
  1  5  1  0  0  0  0
  2  3  1  0  0  0  0
  2  4  1  0  0  0  0
  2  6  2  0  0  0  0
  3  5  1  0  0  0  0
  3  7  2  0  0  0  0
  4 10  1  0  0  0  0
  4 11  1  0  0  0  0
  5 12  1  0  0  0  0
  5 13  1  0  0  0  0
  6  8  1  0  0  0  0
  6 14  1  0  0  0  0
  7  9  1  0  0  0  0
  7 15  1  0  0  0  0
  8  9  2  0  0  0  0
  8 16  1  0  0  0  0
  9 17  1  0  0  0  0
M  END
