
 OpenBabel09142117343D

 36 38  0  0  1  0  0  0  0  0999 V2000
    2.3034   -1.7422   -0.4897 S   0  0  0  0  0  0  0  0  0  0  0  0
    2.0835   -2.7720    0.6284 O   0  0  0  0  0  0  0  0  0  0  0  0
    2.6832   -2.5683   -1.7292 O   0  0  0  0  0  0  0  0  0  0  0  0
    1.0705    2.3646    0.5844 O   0  0  0  0  0  0  0  0  0  0  0  0
   -1.3236    1.8411   -0.6292 O   0  0  0  0  0  0  0  0  0  0  0  0
    0.7269   -1.0728   -0.8157 N   0  0  0  0  0  0  0  0  0  0  0  0
   -2.0360   -0.2041   -0.0204 N   0  0  0  0  0  0  0  0  0  0  0  0
   -4.2389   -1.0230    0.4188 N   0  0  0  0  0  0  0  0  0  0  0  0
    3.4078   -0.4403   -0.1080 C   0  0  0  0  0  0  0  0  0  0  0  0
    2.8714    0.8306    0.1514 C   0  0  0  0  0  0  0  0  0  0  0  0
    0.4015    0.2555   -0.3351 C   0  0  0  0  0  0  0  0  0  0  0  0
    1.3886    1.1299    0.1090 C   0  0  0  0  0  0  0  0  0  0  0  0
    4.7852   -0.6805   -0.0508 C   0  0  0  0  0  0  0  0  0  0  0  0
   -0.1517   -1.8621   -1.6680 C   0  0  0  0  0  0  0  0  0  0  0  0
    3.7780    1.8644    0.4848 C   0  0  0  0  0  0  0  0  0  0  0  0
   -1.0482    0.6888   -0.3440 C   0  0  0  0  0  0  0  0  0  0  0  0
    5.6589    0.3562    0.2719 C   0  0  0  0  0  0  0  0  0  0  0  0
    5.1552    1.6277    0.5409 C   0  0  0  0  0  0  0  0  0  0  0  0
   -3.4541    0.0159    0.0107 C   0  0  0  0  0  0  0  0  0  0  0  0
   -4.0883    1.2267   -0.3572 C   0  0  0  0  0  0  0  0  0  0  0  0
   -5.4808    1.3246   -0.2898 C   0  0  0  0  0  0  0  0  0  0  0  0
   -5.5934   -0.9434    0.4899 C   0  0  0  0  0  0  0  0  0  0  0  0
   -6.2403    0.2374    0.1356 C   0  0  0  0  0  0  0  0  0  0  0  0
    5.1780   -1.6690   -0.2528 H   0  0  0  0  0  0  0  0  0  0  0  0
   -1.0810   -1.3363   -1.9535 H   0  0  0  0  0  0  0  0  0  0  0  0
    0.3605   -2.0838   -2.6270 H   0  0  0  0  0  0  0  0  0  0  0  0
   -0.4033   -2.8191   -1.1649 H   0  0  0  0  0  0  0  0  0  0  0  0
    3.4311    2.8665    0.7005 H   0  0  0  0  0  0  0  0  0  0  0  0
    6.7248    0.1736    0.3172 H   0  0  0  0  0  0  0  0  0  0  0  0
    5.8323    2.4333    0.7946 H   0  0  0  0  0  0  0  0  0  0  0  0
   -1.7389   -1.1478    0.2691 H   0  0  0  0  0  0  0  0  0  0  0  0
    0.1954    2.7169    0.7765 H   0  0  0  0  0  0  0  0  0  0  0  0
   -3.5634    2.1005   -0.6974 H   0  0  0  0  0  0  0  0  0  0  0  0
   -5.9724    2.2476   -0.5698 H   0  0  0  0  0  0  0  0  0  0  0  0
   -6.1664   -1.7989    0.8216 H   0  0  0  0  0  0  0  0  0  0  0  0
   -7.3190    0.3091    0.1890 H   0  0  0  0  0  0  0  0  0  0  0  0
  1  2  2  0  0  0  0
  1  3  2  0  0  0  0
  1  6  1  0  0  0  0
  1  9  1  0  0  0  0
  4 12  1  0  0  0  0
  4 32  1  0  0  0  0
  5 16  2  0  0  0  0
  6 11  1  0  0  0  0
  6 14  1  0  0  0  0
  7 16  1  0  0  0  0
  7 19  1  0  0  0  0
  7 31  1  0  0  0  0
  8 19  1  0  0  0  0
  8 22  2  0  0  0  0
  9 10  1  0  0  0  0
  9 13  2  0  0  0  0
 10 12  1  0  0  0  0
 10 15  2  0  0  0  0
 11 12  2  0  0  0  0
 11 16  1  0  0  0  0
 13 17  1  0  0  0  0
 13 24  1  0  0  0  0
 14 25  1  0  0  0  0
 14 26  1  0  0  0  0
 14 27  1  0  0  0  0
 15 18  1  0  0  0  0
 15 28  1  0  0  0  0
 17 18  2  0  0  0  0
 17 29  1  0  0  0  0
 18 30  1  0  0  0  0
 19 20  2  0  0  0  0
 20 21  1  0  0  0  0
 20 33  1  0  0  0  0
 21 23  2  0  0  0  0
 21 34  1  0  0  0  0
 22 23  1  0  0  0  0
 22 35  1  0  0  0  0
 23 36  1  0  0  0  0
M  END
