
 OpenBabel10232220143D

 54 57  0  0  1  0  0  0  0  0999 V2000
    2.3697    0.5585    2.0590 O   0  0  0  0  0  0  0  0  0  0  0  0
   -0.5104   -1.6453   -1.6279 O   0  0  0  0  0  0  0  0  0  0  0  0
    4.5474   -0.2614   -0.6045 O   0  0  0  0  0  0  0  0  0  0  0  0
    3.7445   -1.9578    2.1223 O   0  0  0  0  0  0  0  0  0  0  0  0
   -6.4612    0.1985    1.6101 O   0  0  0  0  0  0  0  0  0  0  0  0
    1.4961    0.1661   -0.1594 C   0  0  1  0  0  0  0  0  0  0  0  0
    0.5844    1.3803    0.0993 C   0  0  2  0  0  0  0  0  0  0  0  0
   -0.7927    1.2893   -0.6050 C   0  0  1  0  0  0  0  0  0  0  0  0
   -1.5277   -0.0124   -0.0973 C   0  0  2  0  0  0  0  0  0  0  0  0
    2.7382    0.6017    0.6923 C   0  0  1  0  0  0  0  0  0  0  0  0
    0.7640   -1.1030    0.3650 C   0  0  0  0  0  0  0  0  0  0  0  0
    1.4978    2.5759   -0.1787 C   0  0  0  0  0  0  0  0  0  0  0  0
   -0.6368   -1.2958   -0.2776 C   0  0  2  0  0  0  0  0  0  0  0  0
   -2.9997   -0.1215   -0.6670 C   0  0  1  0  0  0  0  0  0  0  0  0
    2.9036    2.0955    0.2687 C   0  0  0  0  0  0  0  0  0  0  0  0
   -1.6263    2.5512   -0.2724 C   0  0  0  0  0  0  0  0  0  0  0  0
    1.8774   -0.0061   -1.6724 C   0  0  0  0  0  0  0  0  0  0  0  0
   -3.0310    2.4769   -0.8668 C   0  0  0  0  0  0  0  0  0  0  0  0
   -3.6888    1.2192   -0.3525 C   0  0  0  0  0  0  0  0  0  0  0  0
    4.0085   -0.2290    0.4918 C   0  0  0  0  0  0  0  0  0  0  0  0
   -3.0607   -0.3460   -2.1983 C   0  0  0  0  0  0  0  0  0  0  0  0
   -3.7215   -1.3144   -0.0334 C   0  0  0  0  0  0  0  0  0  0  0  0
   -4.8102    1.3088    0.3889 C   0  0  0  0  0  0  0  0  0  0  0  0
    4.6428   -1.0089    1.6159 C   0  0  0  0  0  0  0  0  0  0  0  0
   -4.8372   -1.2060    0.6981 C   0  0  0  0  0  0  0  0  0  0  0  0
   -5.4434    0.1062    0.9427 C   0  0  0  0  0  0  0  0  0  0  0  0
    0.3598    1.4250    1.1920 H   0  0  0  0  0  0  0  0  0  0  0  0
   -0.6535    1.2467   -1.7036 H   0  0  0  0  0  0  0  0  0  0  0  0
   -1.6407    0.1126    1.0058 H   0  0  0  0  0  0  0  0  0  0  0  0
    0.5888   -0.9976    1.4577 H   0  0  0  0  0  0  0  0  0  0  0  0
    1.3926   -2.0085    0.2234 H   0  0  0  0  0  0  0  0  0  0  0  0
    1.1606    3.5159    0.3072 H   0  0  0  0  0  0  0  0  0  0  0  0
    1.5227    2.7507   -1.2768 H   0  0  0  0  0  0  0  0  0  0  0  0
   -1.1299   -2.1391    0.2560 H   0  0  0  0  0  0  0  0  0  0  0  0
    3.5652    2.1846   -0.6207 H   0  0  0  0  0  0  0  0  0  0  0  0
    3.3679    2.7207    1.0611 H   0  0  0  0  0  0  0  0  0  0  0  0
   -1.1205    3.4611   -0.6606 H   0  0  0  0  0  0  0  0  0  0  0  0
   -1.7196    2.6522    0.8326 H   0  0  0  0  0  0  0  0  0  0  0  0
    1.0102   -0.0858   -2.3465 H   0  0  0  0  0  0  0  0  0  0  0  0
    2.4649    0.8400   -2.0757 H   0  0  0  0  0  0  0  0  0  0  0  0
    2.4824   -0.9256   -1.8124 H   0  0  0  0  0  0  0  0  0  0  0  0
   -2.9802    2.4630   -1.9744 H   0  0  0  0  0  0  0  0  0  0  0  0
   -3.5936    3.3911   -0.5754 H   0  0  0  0  0  0  0  0  0  0  0  0
   -2.6693   -1.3385   -2.4932 H   0  0  0  0  0  0  0  0  0  0  0  0
   -4.1190   -0.3209   -2.5387 H   0  0  0  0  0  0  0  0  0  0  0  0
   -2.5043    0.4220   -2.7692 H   0  0  0  0  0  0  0  0  0  0  0  0
   -3.3265   -2.3125   -0.1943 H   0  0  0  0  0  0  0  0  0  0  0  0
    3.0329    1.0781    2.5844 H   0  0  0  0  0  0  0  0  0  0  0  0
   -0.2172   -2.5936   -1.6584 H   0  0  0  0  0  0  0  0  0  0  0  0
   -5.2583    2.2762    0.5993 H   0  0  0  0  0  0  0  0  0  0  0  0
    5.5765   -1.5146    1.2777 H   0  0  0  0  0  0  0  0  0  0  0  0
    4.9368   -0.3182    2.4328 H   0  0  0  0  0  0  0  0  0  0  0  0
   -5.3002   -2.0983    1.1094 H   0  0  0  0  0  0  0  0  0  0  0  0
    3.7074   -2.6958    1.4590 H   0  0  0  0  0  0  0  0  0  0  0  0
  1 10  1  0  0  0  0
  1 48  1  0  0  0  0
  2 13  1  0  0  0  0
  2 49  1  0  0  0  0
  3 20  2  0  0  0  0
  4 24  1  0  0  0  0
  4 54  1  0  0  0  0
  5 26  2  0  0  0  0
  6  7  1  1  0  0  0
  6 11  1  0  0  0  0
  6 17  1  0  0  0  0
  7  8  1  6  0  0  0
  7 12  1  0  0  0  0
  7 27  1  0  0  0  0
  8  9  1  1  0  0  0
  8 16  1  0  0  0  0
  8 28  1  0  0  0  0
  9 13  1  6  0  0  0
  9 29  1  0  0  0  0
 10  6  1  6  0  0  0
 10 15  1  0  0  0  0
 10 20  1  0  0  0  0
 11 13  1  0  0  0  0
 11 30  1  0  0  0  0
 11 31  1  0  0  0  0
 12 15  1  0  0  0  0
 12 32  1  0  0  0  0
 12 33  1  0  0  0  0
 13 34  1  1  0  0  0
 14  9  1  1  0  0  0
 14 19  1  0  0  0  0
 14 21  1  0  0  0  0
 14 22  1  0  0  0  0
 15 35  1  0  0  0  0
 15 36  1  0  0  0  0
 16 18  1  0  0  0  0
 16 37  1  0  0  0  0
 16 38  1  0  0  0  0
 17 39  1  0  0  0  0
 17 40  1  0  0  0  0
 17 41  1  0  0  0  0
 18 19  1  0  0  0  0
 18 42  1  0  0  0  0
 18 43  1  0  0  0  0
 19 23  2  0  0  0  0
 20 24  1  0  0  0  0
 21 44  1  0  0  0  0
 21 45  1  0  0  0  0
 21 46  1  0  0  0  0
 22 25  2  0  0  0  0
 22 47  1  0  0  0  0
 23 26  1  0  0  0  0
 23 50  1  0  0  0  0
 24 51  1  0  0  0  0
 24 52  1  0  0  0  0
 25 26  1  0  0  0  0
 25 53  1  0  0  0  0
M  END
