
 OpenBabel09072119153D

 25 25  0  0  0  0  0  0  0  0999 V2000
   -1.0742   -0.4958    0.0534 C   0  0  0  0  0  0  0  0  0  0  0  0
   -0.0507   -1.3344   -0.4240 C   0  0  0  0  0  0  0  0  0  0  0  0
   -2.4166   -0.8466   -0.1189 C   0  0  0  0  0  0  0  0  0  0  0  0
   -0.4006   -2.5311   -1.0773 C   0  0  0  0  0  0  0  0  0  0  0  0
    1.3728   -0.9590   -0.2394 C   0  0  0  0  0  0  0  0  0  0  0  0
   -2.7558   -2.0404   -0.7707 C   0  0  0  0  0  0  0  0  0  0  0  0
   -1.7441   -2.8789   -1.2480 C   0  0  0  0  0  0  0  0  0  0  0  0
   -4.0463   -2.3908   -0.9436 O   0  0  0  0  0  0  0  0  0  0  0  0
    2.2593   -1.6928   -0.6569 O   0  0  0  0  0  0  0  0  0  0  0  0
    1.6868    0.2009    0.3942 O   0  0  0  0  0  0  0  0  0  0  0  0
    2.9774    0.6370    0.6147 C   0  0  0  0  0  0  0  0  0  0  0  0
    2.9416    1.9748    1.3513 C   0  0  0  0  0  0  0  0  0  0  0  0
    4.3500    2.4978    1.6181 C   0  0  0  0  0  0  0  0  0  0  0  0
   -0.8394    0.4318    0.5604 H   0  0  0  0  0  0  0  0  0  0  0  0
   -3.1918   -0.1894    0.2548 H   0  0  0  0  0  0  0  0  0  0  0  0
    0.3629   -3.1987   -1.4566 H   0  0  0  0  0  0  0  0  0  0  0  0
   -1.9985   -3.8027   -1.7525 H   0  0  0  0  0  0  0  0  0  0  0  0
   -4.7762   -1.8388   -0.6284 H   0  0  0  0  0  0  0  0  0  0  0  0
    3.5236   -0.1123    1.2298 H   0  0  0  0  0  0  0  0  0  0  0  0
    3.4997    0.7623   -0.3598 H   0  0  0  0  0  0  0  0  0  0  0  0
    2.3885    2.7190    0.7379 H   0  0  0  0  0  0  0  0  0  0  0  0
    2.4121    1.8481    2.3207 H   0  0  0  0  0  0  0  0  0  0  0  0
    4.8926    2.6514    0.6610 H   0  0  0  0  0  0  0  0  0  0  0  0
    4.9163    1.7785    2.2475 H   0  0  0  0  0  0  0  0  0  0  0  0
    4.2911    3.4689    2.1533 H   0  0  0  0  0  0  0  0  0  0  0  0
  1  2  1  0  0  0  0
  1  3  2  0  0  0  0
  1 14  1  0  0  0  0
  2  4  2  0  0  0  0
  2  5  1  0  0  0  0
  3 15  1  0  0  0  0
  4  7  1  0  0  0  0
  4 16  1  0  0  0  0
  5  9  2  0  0  0  0
  5 10  1  0  0  0  0
  6  3  1  0  0  0  0
  6  8  1  0  0  0  0
  7  6  2  0  0  0  0
  7 17  1  0  0  0  0
  8 18  1  0  0  0  0
 10 11  1  0  0  0  0
 11 12  1  0  0  0  0
 11 19  1  0  0  0  0
 11 20  1  0  0  0  0
 12 13  1  0  0  0  0
 12 21  1  0  0  0  0
 12 22  1  0  0  0  0
 13 23  1  0  0  0  0
 13 24  1  0  0  0  0
 13 25  1  0  0  0  0
M  END
