
 OpenBabel09062116563D

 17 17  0  0  0  0  0  0  0  0999 V2000
   -3.6255    2.4762   -0.0086 O   0  0  0  0  0  0  0  0  0  0  0  0
   -5.9500    1.0494    0.2237 O   0  0  0  0  0  0  0  0  0  0  0  0
    0.0357   -0.9148   -1.0881 O   0  0  0  0  0  0  0  0  0  0  0  0
   -1.0942   -2.8292   -1.1297 O   0  0  0  0  0  0  0  0  0  0  0  0
   -2.3852   -0.9205   -0.6588 C   0  0  0  0  0  0  0  0  0  0  0  0
   -2.4068    0.4740   -0.4784 C   0  0  0  0  0  0  0  0  0  0  0  0
   -3.6075    1.1381   -0.1811 C   0  0  0  0  0  0  0  0  0  0  0  0
   -3.5864   -1.6417   -0.5367 C   0  0  0  0  0  0  0  0  0  0  0  0
   -4.7978    0.4082   -0.0621 C   0  0  0  0  0  0  0  0  0  0  0  0
   -4.7820   -0.9820   -0.2409 C   0  0  0  0  0  0  0  0  0  0  0  0
   -1.1128   -1.6167   -0.9729 C   0  0  0  0  0  0  0  0  0  0  0  0
   -1.4941    1.0503   -0.5676 H   0  0  0  0  0  0  0  0  0  0  0  0
   -3.6032   -2.7162   -0.6698 H   0  0  0  0  0  0  0  0  0  0  0  0
   -5.6970   -1.5540   -0.1508 H   0  0  0  0  0  0  0  0  0  0  0  0
   -2.8261    3.0168   -0.0821 H   0  0  0  0  0  0  0  0  0  0  0  0
   -6.7921    0.5809    0.3139 H   0  0  0  0  0  0  0  0  0  0  0  0
    0.8760   -1.3492   -1.2923 H   0  0  0  0  0  0  0  0  0  0  0  0
  1  7  1  0  0  0  0
  1 15  1  0  0  0  0
  2  9  1  0  0  0  0
  2 16  1  0  0  0  0
  3 11  1  0  0  0  0
  3 17  1  0  0  0  0
  4 11  2  0  0  0  0
  5  6  2  0  0  0  0
  5  8  1  0  0  0  0
  5 11  1  0  0  0  0
  6  7  1  0  0  0  0
  6 12  1  0  0  0  0
  7  9  2  0  0  0  0
  8 10  2  0  0  0  0
  8 13  1  0  0  0  0
  9 10  1  0  0  0  0
 10 14  1  0  0  0  0
M  END
