
 OpenBabel10302115283D

 10 10  0  0  0  0  0  0  0  0999 V2000
    0.9688   -1.6236    0.0821 N   0  0  0  0  0  0  0  0  0  0  0  0
   -1.3481   -1.2030    0.0915 N   0  0  0  0  0  0  0  0  0  0  0  0
    0.1774    0.6137   -0.1418 C   0  0  0  0  0  0  0  0  0  0  0  0
    1.2298   -0.2986   -0.0678 C   0  0  0  0  0  0  0  0  0  0  0  0
   -1.1279    0.1294   -0.0583 C   0  0  0  0  0  0  0  0  0  0  0  0
   -0.3099   -2.0773    0.1616 C   0  0  0  0  0  0  0  0  0  0  0  0
    0.3691    1.6722   -0.2611 H   0  0  0  0  0  0  0  0  0  0  0  0
    2.2536    0.0456   -0.1295 H   0  0  0  0  0  0  0  0  0  0  0  0
   -1.9658    0.8115   -0.1124 H   0  0  0  0  0  0  0  0  0  0  0  0
   -0.5013   -3.1348    0.2809 H   0  0  0  0  0  0  0  0  0  0  0  0
  1  4  2  0  0  0  0
  1  6  1  0  0  0  0
  2  5  1  0  0  0  0
  2  6  2  0  0  0  0
  3  4  1  0  0  0  0
  3  5  2  0  0  0  0
  3  7  1  0  0  0  0
  4  8  1  0  0  0  0
  5  9  1  0  0  0  0
  6 10  1  0  0  0  0
M  END
