
 OpenBabel11072209073D

 15 15  0  0  0  0  0  0  0  0999 V2000
   -0.0536   -2.1244    0.0002 O   0  0  0  0  0  0  0  0  0  0  0  0
   -2.4294   -0.6861    0.0003 O   0  0  0  0  0  0  0  0  0  0  0  0
    2.3647   -0.7594    0.0001 O   0  0  0  0  0  0  0  0  0  0  0  0
   -0.0407   -0.7735    0.0002 C   0  0  0  0  0  0  0  0  0  0  0  0
   -1.2444   -0.0402    0.0003 C   0  0  0  0  0  0  0  0  0  0  0  0
    1.1922   -0.0905    0.0002 C   0  0  0  0  0  0  0  0  0  0  0  0
   -1.2056    1.3625    0.0004 C   0  0  0  0  0  0  0  0  0  0  0  0
    1.2131    1.3088    0.0002 C   0  0  0  0  0  0  0  0  0  0  0  0
    0.0192    2.0324    0.0003 C   0  0  0  0  0  0  0  0  0  0  0  0
   -2.1248    1.9347    0.0004 H   0  0  0  0  0  0  0  0  0  0  0  0
    2.1582    1.8372    0.0002 H   0  0  0  0  0  0  0  0  0  0  0  0
    0.0432    3.1146    0.0004 H   0  0  0  0  0  0  0  0  0  0  0  0
   -0.8707   -2.6424    0.0003 H   0  0  0  0  0  0  0  0  0  0  0  0
   -3.2747   -0.2146    0.0004 H   0  0  0  0  0  0  0  0  0  0  0  0
    2.4176   -1.7254    0.0001 H   0  0  0  0  0  0  0  0  0  0  0  0
  1  4  1  0  0  0  0
  1 13  1  0  0  0  0
  2  5  1  0  0  0  0
  2 14  1  0  0  0  0
  3  6  1  0  0  0  0
  3 15  1  0  0  0  0
  4  5  2  0  0  0  0
  4  6  1  0  0  0  0
  5  7  1  0  0  0  0
  6  8  2  0  0  0  0
  7  9  2  0  0  0  0
  7 10  1  0  0  0  0
  8  9  1  0  0  0  0
  8 11  1  0  0  0  0
  9 12  1  0  0  0  0
M  END
