
 OpenBabel06142413363D

 29 30  0  0  0  0  0  0  0  0999 V2000
   -4.7882   -1.9618   -0.9733 O   0  0  0  0  0  0  0  0  0  0  0  0
   -4.1646    2.3363    0.9654 O   0  0  0  0  0  0  0  0  0  0  0  0
    6.2250   -0.3694   -0.0076 O   0  0  0  0  0  0  0  0  0  0  0  0
   -1.7204   -0.2230    0.0734 C   0  0  0  0  0  0  0  0  0  0  0  0
    2.1036    0.1911   -0.0709 C   0  0  0  0  0  0  0  0  0  0  0  0
   -0.2744   -0.4801    0.1398 C   0  0  0  0  0  0  0  0  0  0  0  0
    0.6581    0.4512   -0.1182 C   0  0  0  0  0  0  0  0  0  0  0  0
   -2.2875    0.9672    0.5489 C   0  0  0  0  0  0  0  0  0  0  0  0
   -2.5643   -1.2229   -0.4309 C   0  0  0  0  0  0  0  0  0  0  0  0
   -3.9420   -1.0123   -0.4781 C   0  0  0  0  0  0  0  0  0  0  0  0
   -3.6665    1.1567    0.4937 C   0  0  0  0  0  0  0  0  0  0  0  0
    2.6878   -0.5963    0.9318 C   0  0  0  0  0  0  0  0  0  0  0  0
    2.9326    0.7962   -1.0248 C   0  0  0  0  0  0  0  0  0  0  0  0
   -4.5031    0.1738   -0.0205 C   0  0  0  0  0  0  0  0  0  0  0  0
    4.0712   -0.7979    0.9650 C   0  0  0  0  0  0  0  0  0  0  0  0
    4.3146    0.5950   -0.9940 C   0  0  0  0  0  0  0  0  0  0  0  0
    4.8724   -0.2010   -0.0020 C   0  0  0  0  0  0  0  0  0  0  0  0
    0.0112   -1.5006    0.3825 H   0  0  0  0  0  0  0  0  0  0  0  0
    0.3734    1.4582   -0.4149 H   0  0  0  0  0  0  0  0  0  0  0  0
   -1.6668    1.7510    0.9747 H   0  0  0  0  0  0  0  0  0  0  0  0
   -2.1389   -2.1547   -0.7923 H   0  0  0  0  0  0  0  0  0  0  0  0
    2.0728   -1.0501    1.7053 H   0  0  0  0  0  0  0  0  0  0  0  0
    2.5094    1.4231   -1.8063 H   0  0  0  0  0  0  0  0  0  0  0  0
   -5.5781    0.3090   -0.0689 H   0  0  0  0  0  0  0  0  0  0  0  0
    4.4985   -1.4127    1.7505 H   0  0  0  0  0  0  0  0  0  0  0  0
    4.9517    1.0605   -1.7405 H   0  0  0  0  0  0  0  0  0  0  0  0
   -4.2629   -2.7231   -1.2709 H   0  0  0  0  0  0  0  0  0  0  0  0
   -5.1309    2.3251    0.8637 H   0  0  0  0  0  0  0  0  0  0  0  0
    6.4696   -0.9371    0.7413 H   0  0  0  0  0  0  0  0  0  0  0  0
  1 10  1  0  0  0  0
  1 27  1  0  0  0  0
  2 11  1  0  0  0  0
  2 28  1  0  0  0  0
  3 17  1  0  0  0  0
  3 29  1  0  0  0  0
  4  6  1  0  0  0  0
  4  8  2  0  0  0  0
  4  9  1  0  0  0  0
  5  7  1  0  0  0  0
  5 12  2  0  0  0  0
  5 13  1  0  0  0  0
  6  7  2  0  0  0  0
  6 18  1  0  0  0  0
  7 19  1  0  0  0  0
  8 11  1  0  0  0  0
  8 20  1  0  0  0  0
  9 10  2  0  0  0  0
  9 21  1  0  0  0  0
 10 14  1  0  0  0  0
 11 14  2  0  0  0  0
 12 15  1  0  0  0  0
 12 22  1  0  0  0  0
 13 16  2  0  0  0  0
 13 23  1  0  0  0  0
 14 24  1  0  0  0  0
 15 17  2  0  0  0  0
 15 25  1  0  0  0  0
 16 17  1  0  0  0  0
 16 26  1  0  0  0  0
M  END
