
 OpenBabel11132206503D

 43 46  0  0  1  0  0  0  0  0999 V2000
    5.3103   -0.0459    1.0072 O   0  0  0  0  0  0  0  0  0  0  0  0
    0.2208   -0.2862   -0.6908 O   0  0  0  0  0  0  0  0  0  0  0  0
   -0.3399   -2.1771    0.3872 O   0  0  0  0  0  0  0  0  0  0  0  0
   -4.2223   -2.2887   -1.0651 O   0  0  0  0  0  0  0  0  0  0  0  0
    3.8115    1.5475   -0.5635 N   0  0  0  0  0  0  0  0  0  0  0  0
    4.3782   -0.6814    0.1600 C   0  0  1  0  0  0  0  0  0  0  0  0
    3.9463    0.0806    1.3451 C   0  0  2  0  0  0  0  0  0  0  0  0
    3.9351    0.1674   -1.0493 C   0  0  1  0  0  0  0  0  0  0  0  0
    3.2669    1.3475    0.7853 C   0  0  2  0  0  0  0  0  0  0  0  0
    2.5012   -0.2444   -1.4837 C   0  0  0  0  0  0  0  0  0  0  0  0
    1.7495    1.0844    0.5790 C   0  0  0  0  0  0  0  0  0  0  0  0
    1.5356   -0.2011   -0.2671 C   0  0  1  0  0  0  0  0  0  0  0  0
    5.0500    2.3446   -0.6249 C   0  0  0  0  0  0  0  0  0  0  0  0
   -0.6658   -1.2612   -0.3569 C   0  0  0  0  0  0  0  0  0  0  0  0
   -2.0667   -1.1854   -0.9217 C   0  0  1  0  0  0  0  0  0  0  0  0
   -2.9428   -2.3834   -0.4981 C   0  0  0  0  0  0  0  0  0  0  0  0
   -2.7080    0.1257   -0.5093 C   0  0  0  0  0  0  0  0  0  0  0  0
   -2.9159    0.4358    0.8490 C   0  0  0  0  0  0  0  0  0  0  0  0
   -3.1010    1.0565   -1.4881 C   0  0  0  0  0  0  0  0  0  0  0  0
   -3.5053    1.6494    1.2153 C   0  0  0  0  0  0  0  0  0  0  0  0
   -3.6904    2.2685   -1.1162 C   0  0  0  0  0  0  0  0  0  0  0  0
   -3.8926    2.5647    0.2338 C   0  0  0  0  0  0  0  0  0  0  0  0
    4.4610   -1.7874    0.1995 H   0  0  0  0  0  0  0  0  0  0  0  0
    3.6984   -0.4421    2.2922 H   0  0  0  0  0  0  0  0  0  0  0  0
    4.6319    0.0886   -1.9127 H   0  0  0  0  0  0  0  0  0  0  0  0
    3.4140    2.2399    1.4326 H   0  0  0  0  0  0  0  0  0  0  0  0
    2.1647    0.4802   -2.2582 H   0  0  0  0  0  0  0  0  0  0  0  0
    2.4863   -1.2618   -1.9307 H   0  0  0  0  0  0  0  0  0  0  0  0
    1.2176    0.9795    1.5494 H   0  0  0  0  0  0  0  0  0  0  0  0
    1.3258    1.9635    0.0444 H   0  0  0  0  0  0  0  0  0  0  0  0
    1.7975   -1.0636    0.3852 H   0  0  0  0  0  0  0  0  0  0  0  0
    4.8498    3.3677   -0.2424 H   0  0  0  0  0  0  0  0  0  0  0  0
    5.3722    2.4447   -1.6828 H   0  0  0  0  0  0  0  0  0  0  0  0
    5.8901    1.9182   -0.0470 H   0  0  0  0  0  0  0  0  0  0  0  0
   -1.9713   -1.2253   -2.0294 H   0  0  0  0  0  0  0  0  0  0  0  0
   -3.0516   -2.4201    0.6067 H   0  0  0  0  0  0  0  0  0  0  0  0
   -2.4661   -3.3434   -0.8031 H   0  0  0  0  0  0  0  0  0  0  0  0
   -2.6194   -0.2599    1.6237 H   0  0  0  0  0  0  0  0  0  0  0  0
   -2.9524    0.8460   -2.5399 H   0  0  0  0  0  0  0  0  0  0  0  0
   -4.1324   -2.5552   -2.0172 H   0  0  0  0  0  0  0  0  0  0  0  0
   -3.6613    1.8806    2.2611 H   0  0  0  0  0  0  0  0  0  0  0  0
   -3.9903    2.9790   -1.8757 H   0  0  0  0  0  0  0  0  0  0  0  0
   -4.3487    3.5038    0.5193 H   0  0  0  0  0  0  0  0  0  0  0  0
  1  6  1  0  0  0  0
  1  7  1  0  0  0  0
  2 12  1  0  0  0  0
  2 14  1  0  0  0  0
  3 14  2  0  0  0  0
  4 16  1  0  0  0  0
  4 40  1  0  0  0  0
  5  8  1  0  0  0  0
  5  9  1  0  0  0  0
  5 13  1  0  0  0  0
  6  7  1  1  0  0  0
  6 23  1  0  0  0  0
  7  9  1  6  0  0  0
  7 24  1  0  0  0  0
  8  6  1  1  0  0  0
  8 10  1  0  0  0  0
  8 25  1  0  0  0  0
  9 11  1  0  0  0  0
  9 26  1  1  0  0  0
 10 12  1  0  0  0  0
 10 27  1  0  0  0  0
 10 28  1  0  0  0  0
 11 12  1  0  0  0  0
 11 29  1  0  0  0  0
 11 30  1  0  0  0  0
 12 31  1  1  0  0  0
 13 32  1  0  0  0  0
 13 33  1  0  0  0  0
 13 34  1  0  0  0  0
 14 15  1  0  0  0  0
 15 16  1  0  0  0  0
 15 17  1  0  0  0  0
 15 35  1  6  0  0  0
 16 36  1  0  0  0  0
 16 37  1  0  0  0  0
 17 18  2  0  0  0  0
 17 19  1  0  0  0  0
 18 20  1  0  0  0  0
 18 38  1  0  0  0  0
 19 21  2  0  0  0  0
 19 39  1  0  0  0  0
 20 22  2  0  0  0  0
 20 41  1  0  0  0  0
 21 22  1  0  0  0  0
 21 42  1  0  0  0  0
 22 43  1  0  0  0  0
M  END
