
 OpenBabel05292312483D

 27 26  0  0  1  0  0  0  0  0999 V2000
   -0.0079   -0.0776   -0.5367 O   0  0  0  0  0  0  0  0  0  0  0  0
    1.3171   -0.1991   -0.0043 C   0  0  0  0  0  0  0  0  0  0  0  0
   -0.9825    0.6500    0.2012 C   0  0  2  0  0  0  0  0  0  0  0  0
   -2.3727    0.1519   -0.2311 C   0  0  0  0  0  0  0  0  0  0  0  0
    1.4939    0.0986    1.5102 C   0  0  0  0  0  0  0  0  0  0  0  0
    1.7418   -1.6586   -0.2367 C   0  0  0  0  0  0  0  0  0  0  0  0
    2.2527    0.7176   -0.8123 C   0  0  0  0  0  0  0  0  0  0  0  0
   -0.8718    2.1532   -0.0834 C   0  0  0  0  0  0  0  0  0  0  0  0
   -2.5652   -1.3343    0.0715 C   0  0  0  0  0  0  0  0  0  0  0  0
   -0.9353    0.4683    1.2934 H   0  0  0  0  0  0  0  0  0  0  0  0
   -3.1583    0.7215    0.3129 H   0  0  0  0  0  0  0  0  0  0  0  0
   -2.5104    0.3173   -1.3224 H   0  0  0  0  0  0  0  0  0  0  0  0
    0.8699   -0.5845    2.1259 H   0  0  0  0  0  0  0  0  0  0  0  0
    2.5519   -0.0570    1.8141 H   0  0  0  0  0  0  0  0  0  0  0  0
    1.2406    1.1504    1.7555 H   0  0  0  0  0  0  0  0  0  0  0  0
    1.6719   -1.9167   -1.3156 H   0  0  0  0  0  0  0  0  0  0  0  0
    1.0733   -2.3469    0.3243 H   0  0  0  0  0  0  0  0  0  0  0  0
    2.7884   -1.8320    0.0965 H   0  0  0  0  0  0  0  0  0  0  0  0
    1.9884    1.7842   -0.6752 H   0  0  0  0  0  0  0  0  0  0  0  0
    3.3096    0.5840   -0.4945 H   0  0  0  0  0  0  0  0  0  0  0  0
    2.1817    0.4834   -1.8963 H   0  0  0  0  0  0  0  0  0  0  0  0
   -0.9604    2.3495   -1.1733 H   0  0  0  0  0  0  0  0  0  0  0  0
   -1.6768    2.7039    0.4484 H   0  0  0  0  0  0  0  0  0  0  0  0
    0.0937    2.5571    0.2750 H   0  0  0  0  0  0  0  0  0  0  0  0
   -2.4582   -1.5232    1.1609 H   0  0  0  0  0  0  0  0  0  0  0  0
   -1.8200   -1.9468   -0.4789 H   0  0  0  0  0  0  0  0  0  0  0  0
   -3.5818   -1.6491   -0.2453 H   0  0  0  0  0  0  0  0  0  0  0  0
  1  2  1  0  0  0  0
  1  3  1  0  0  0  0
  2  5  1  0  0  0  0
  2  6  1  0  0  0  0
  2  7  1  0  0  0  0
  3  4  1  0  0  0  0
  3  8  1  0  0  0  0
  3 10  1  1  0  0  0
  4  9  1  0  0  0  0
  4 11  1  0  0  0  0
  4 12  1  0  0  0  0
  5 13  1  0  0  0  0
  5 14  1  0  0  0  0
  5 15  1  0  0  0  0
  6 16  1  0  0  0  0
  6 17  1  0  0  0  0
  6 18  1  0  0  0  0
  7 19  1  0  0  0  0
  7 20  1  0  0  0  0
  7 21  1  0  0  0  0
  8 22  1  0  0  0  0
  8 23  1  0  0  0  0
  8 24  1  0  0  0  0
  9 25  1  0  0  0  0
  9 26  1  0  0  0  0
  9 27  1  0  0  0  0
M  END
