
 OpenBabel09142117203D

 30 31  0  0  0  0  0  0  0  0999 V2000
   -0.6548   -3.5709   -3.6109 S   0  0  0  0  0  0  0  0  0  0  0  0
   -0.1336   -4.9547   -3.1942 O   0  0  0  0  0  0  0  0  0  0  0  0
   -1.2300   -3.8549   -5.0069 O   0  0  0  0  0  0  0  0  0  0  0  0
    0.7835   -2.6082   -3.9038 N   0  0  0  0  0  0  0  0  0  0  0  0
    1.2429   -2.4025   -1.5464 N   0  0  0  0  0  0  0  0  0  0  0  0
    2.6810   -1.3752   -3.0978 N   0  0  0  0  0  0  0  0  0  0  0  0
   -4.7415   -1.2772    0.1634 N   0  0  0  0  0  0  0  0  0  0  0  0
   -1.8763   -2.8933   -2.4862 C   0  0  0  0  0  0  0  0  0  0  0  0
   -1.9032   -3.3006   -1.1465 C   0  0  0  0  0  0  0  0  0  0  0  0
   -2.8012   -1.9477   -2.9439 C   0  0  0  0  0  0  0  0  0  0  0  0
   -3.7807   -1.8193   -0.7250 C   0  0  0  0  0  0  0  0  0  0  0  0
   -2.8514   -2.7662   -0.2691 C   0  0  0  0  0  0  0  0  0  0  0  0
   -3.7505   -1.4128   -2.0676 C   0  0  0  0  0  0  0  0  0  0  0  0
    1.5777   -2.1253   -2.8355 C   0  0  0  0  0  0  0  0  0  0  0  0
    1.9878   -1.9443   -0.5068 C   0  0  0  0  0  0  0  0  0  0  0  0
    3.1259   -1.1714   -0.7641 C   0  0  0  0  0  0  0  0  0  0  0  0
    3.4568   -0.8966   -2.0908 C   0  0  0  0  0  0  0  0  0  0  0  0
    1.5719   -2.2767    0.8915 C   0  0  0  0  0  0  0  0  0  0  0  0
    1.0437   -2.3828   -4.8750 H   0  0  0  0  0  0  0  0  0  0  0  0
   -1.1903   -4.0290   -0.7818 H   0  0  0  0  0  0  0  0  0  0  0  0
   -2.7857   -1.6253   -3.9772 H   0  0  0  0  0  0  0  0  0  0  0  0
   -2.8611   -3.0890    0.7644 H   0  0  0  0  0  0  0  0  0  0  0  0
   -4.4607   -0.6822   -2.4340 H   0  0  0  0  0  0  0  0  0  0  0  0
    3.7422   -0.7902    0.0404 H   0  0  0  0  0  0  0  0  0  0  0  0
    4.3306   -0.3017   -2.3207 H   0  0  0  0  0  0  0  0  0  0  0  0
    0.5527   -1.8780    1.0783 H   0  0  0  0  0  0  0  0  0  0  0  0
    1.5590   -3.3790    1.0213 H   0  0  0  0  0  0  0  0  0  0  0  0
    2.2671   -1.8392    1.6394 H   0  0  0  0  0  0  0  0  0  0  0  0
   -4.7696   -1.5705    1.1510 H   0  0  0  0  0  0  0  0  0  0  0  0
   -5.4272   -0.5810   -0.1640 H   0  0  0  0  0  0  0  0  0  0  0  0
  1  2  2  0  0  0  0
  1  3  2  0  0  0  0
  1  4  1  0  0  0  0
  1  8  1  0  0  0  0
  4 14  1  0  0  0  0
  4 19  1  0  0  0  0
  5 14  1  0  0  0  0
  5 15  2  0  0  0  0
  6 14  2  0  0  0  0
  6 17  1  0  0  0  0
  7 11  1  0  0  0  0
  7 29  1  0  0  0  0
  7 30  1  0  0  0  0
  8  9  2  0  0  0  0
  8 10  1  0  0  0  0
  9 12  1  0  0  0  0
  9 20  1  0  0  0  0
 10 13  2  0  0  0  0
 10 21  1  0  0  0  0
 11 12  2  0  0  0  0
 11 13  1  0  0  0  0
 12 22  1  0  0  0  0
 13 23  1  0  0  0  0
 15 16  1  0  0  0  0
 15 18  1  0  0  0  0
 16 17  2  0  0  0  0
 16 24  1  0  0  0  0
 17 25  1  0  0  0  0
 18 26  1  0  0  0  0
 18 27  1  0  0  0  0
 18 28  1  0  0  0  0
M  END
