
 OpenBabel05312318393D

 21 20  0  0  0  0  0  0  0  0999 V2000
    0.4919   -0.5629   -0.0131 O   0  0  0  0  0  0  0  0  0  0  0  0
   -0.8139    0.0142    0.0170 C   0  0  0  0  0  0  0  0  0  0  0  0
   -1.0961    0.9673   -1.1728 C   0  0  0  0  0  0  0  0  0  0  0  0
   -1.8042   -1.1585   -0.0823 C   0  0  0  0  0  0  0  0  0  0  0  0
   -1.0599    0.7377    1.3582 C   0  0  0  0  0  0  0  0  0  0  0  0
    1.5399    0.3540   -0.2699 C   0  0  0  0  0  0  0  0  0  0  0  0
    2.8591   -0.2850    0.1355 C   0  0  0  0  0  0  0  0  0  0  0  0
   -0.9296    0.4422   -2.1378 H   0  0  0  0  0  0  0  0  0  0  0  0
   -2.1482    1.3250   -1.1446 H   0  0  0  0  0  0  0  0  0  0  0  0
   -0.4466    1.8670   -1.1413 H   0  0  0  0  0  0  0  0  0  0  0  0
   -1.6485   -1.8704    0.7571 H   0  0  0  0  0  0  0  0  0  0  0  0
   -1.6536   -1.7126   -1.0340 H   0  0  0  0  0  0  0  0  0  0  0  0
   -2.8562   -0.8002   -0.0467 H   0  0  0  0  0  0  0  0  0  0  0  0
   -0.3957    1.6157    1.4839 H   0  0  0  0  0  0  0  0  0  0  0  0
   -2.1071    1.1058    1.4164 H   0  0  0  0  0  0  0  0  0  0  0  0
   -0.8837    0.0443    2.2084 H   0  0  0  0  0  0  0  0  0  0  0  0
    1.5898    0.5815   -1.3569 H   0  0  0  0  0  0  0  0  0  0  0  0
    1.4401    1.2913    0.3158 H   0  0  0  0  0  0  0  0  0  0  0  0
    3.6964    0.4143   -0.0727 H   0  0  0  0  0  0  0  0  0  0  0  0
    2.8488   -0.5220    1.2207 H   0  0  0  0  0  0  0  0  0  0  0  0
    3.0213   -1.2215   -0.4394 H   0  0  0  0  0  0  0  0  0  0  0  0
  1  2  1  0  0  0  0
  1  6  1  0  0  0  0
  2  3  1  0  0  0  0
  2  4  1  0  0  0  0
  2  5  1  0  0  0  0
  3  8  1  0  0  0  0
  3  9  1  0  0  0  0
  3 10  1  0  0  0  0
  4 11  1  0  0  0  0
  4 12  1  0  0  0  0
  4 13  1  0  0  0  0
  5 14  1  0  0  0  0
  5 15  1  0  0  0  0
  5 16  1  0  0  0  0
  6  7  1  0  0  0  0
  6 17  1  0  0  0  0
  6 18  1  0  0  0  0
  7 19  1  0  0  0  0
  7 20  1  0  0  0  0
  7 21  1  0  0  0  0
M  END
