
 OpenBabel05292313093D

 27 26  0  0  0  0  0  0  0  0999 V2000
   -0.3011    0.2924   -0.5558 O   0  0  0  0  0  0  0  0  0  0  0  0
   -1.5839   -0.0059   -0.0061 C   0  0  0  0  0  0  0  0  0  0  0  0
    2.0930    0.0692   -0.3793 C   0  0  0  0  0  0  0  0  0  0  0  0
    0.7278   -0.6130   -0.1944 C   0  0  0  0  0  0  0  0  0  0  0  0
   -1.6546    0.4183    1.4767 C   0  0  0  0  0  0  0  0  0  0  0  0
   -2.5964    0.8426   -0.7937 C   0  0  0  0  0  0  0  0  0  0  0  0
   -1.9916   -1.4927   -0.1691 C   0  0  0  0  0  0  0  0  0  0  0  0
    2.2181    1.3019    0.5272 C   0  0  0  0  0  0  0  0  0  0  0  0
    3.2277   -0.9194   -0.0835 C   0  0  0  0  0  0  0  0  0  0  0  0
    2.1857    0.3977   -1.4384 H   0  0  0  0  0  0  0  0  0  0  0  0
    0.6812   -1.4984   -0.8661 H   0  0  0  0  0  0  0  0  0  0  0  0
    0.6566   -0.9476    0.8622 H   0  0  0  0  0  0  0  0  0  0  0  0
   -1.3873    1.4916    1.5833 H   0  0  0  0  0  0  0  0  0  0  0  0
   -2.6813    0.2701    1.8759 H   0  0  0  0  0  0  0  0  0  0  0  0
   -0.9666   -0.1729    2.1130 H   0  0  0  0  0  0  0  0  0  0  0  0
   -2.5704    0.5743   -1.8721 H   0  0  0  0  0  0  0  0  0  0  0  0
   -2.3509    1.9230   -0.7036 H   0  0  0  0  0  0  0  0  0  0  0  0
   -3.6308    0.6860   -0.4172 H   0  0  0  0  0  0  0  0  0  0  0  0
   -1.3290   -2.1684    0.4105 H   0  0  0  0  0  0  0  0  0  0  0  0
   -3.0267   -1.6555    0.2019 H   0  0  0  0  0  0  0  0  0  0  0  0
   -1.9511   -1.7899   -1.2390 H   0  0  0  0  0  0  0  0  0  0  0  0
    3.2004    1.7959    0.3683 H   0  0  0  0  0  0  0  0  0  0  0  0
    2.1318    1.0132    1.5970 H   0  0  0  0  0  0  0  0  0  0  0  0
    1.4224    2.0405    0.2926 H   0  0  0  0  0  0  0  0  0  0  0  0
    4.2129   -0.4332   -0.2486 H   0  0  0  0  0  0  0  0  0  0  0  0
    3.1584   -1.7971   -0.7610 H   0  0  0  0  0  0  0  0  0  0  0  0
    3.1766   -1.2749    0.9683 H   0  0  0  0  0  0  0  0  0  0  0  0
  1  2  1  0  0  0  0
  1  4  1  0  0  0  0
  2  5  1  0  0  0  0
  2  6  1  0  0  0  0
  2  7  1  0  0  0  0
  3  4  1  0  0  0  0
  3  8  1  0  0  0  0
  3  9  1  0  0  0  0
  3 10  1  0  0  0  0
  4 11  1  0  0  0  0
  4 12  1  0  0  0  0
  5 13  1  0  0  0  0
  5 14  1  0  0  0  0
  5 15  1  0  0  0  0
  6 16  1  0  0  0  0
  6 17  1  0  0  0  0
  6 18  1  0  0  0  0
  7 19  1  0  0  0  0
  7 20  1  0  0  0  0
  7 21  1  0  0  0  0
  8 22  1  0  0  0  0
  8 23  1  0  0  0  0
  8 24  1  0  0  0  0
  9 25  1  0  0  0  0
  9 26  1  0  0  0  0
  9 27  1  0  0  0  0
M  END
