
 OpenBabel05292312513D

 16 15  0  0  0  0  0  0  0  0999 V2000
    0.2092   -0.1101    0.7369 O   0  0  0  0  0  0  0  0  0  0  0  0
    1.2884   -0.1512   -0.0262 O   0  0  0  0  0  0  0  0  0  0  0  0
   -0.9287   -0.0125   -0.1025 C   0  0  0  0  0  0  0  0  0  0  0  0
   -1.0492   -1.2497   -1.0187 C   0  0  0  0  0  0  0  0  0  0  0  0
   -2.1634    0.0413    0.8109 C   0  0  0  0  0  0  0  0  0  0  0  0
   -0.8829    1.2815   -0.9437 C   0  0  0  0  0  0  0  0  0  0  0  0
   -1.0888   -2.1786   -0.4102 H   0  0  0  0  0  0  0  0  0  0  0  0
   -1.9718   -1.1916   -1.6359 H   0  0  0  0  0  0  0  0  0  0  0  0
   -0.1830   -1.3221   -1.7100 H   0  0  0  0  0  0  0  0  0  0  0  0
   -2.1050    0.9192    1.4901 H   0  0  0  0  0  0  0  0  0  0  0  0
   -2.2220   -0.8750    1.4373 H   0  0  0  0  0  0  0  0  0  0  0  0
   -3.0979    0.1198    0.2137 H   0  0  0  0  0  0  0  0  0  0  0  0
   -0.0100    1.2816   -1.6304 H   0  0  0  0  0  0  0  0  0  0  0  0
   -1.8017    1.3799   -1.5615 H   0  0  0  0  0  0  0  0  0  0  0  0
   -0.8054    2.1704   -0.2813 H   0  0  0  0  0  0  0  0  0  0  0  0
    1.6550   -1.0632    0.1027 H   0  0  0  0  0  0  0  0  0  0  0  0
  1  2  1  0  0  0  0
  1  3  1  0  0  0  0
  2 16  1  0  0  0  0
  3  4  1  0  0  0  0
  3  5  1  0  0  0  0
  3  6  1  0  0  0  0
  4  7  1  0  0  0  0
  4  8  1  0  0  0  0
  4  9  1  0  0  0  0
  5 10  1  0  0  0  0
  5 11  1  0  0  0  0
  5 12  1  0  0  0  0
  6 13  1  0  0  0  0
  6 14  1  0  0  0  0
  6 15  1  0  0  0  0
M  END
