  TETRAETHYLENE GLYCOL.mol	112-60-7
  NIST    07011505463D 1   1.00000  -691.72711
Copyright by the U.S. Sec. Commerce on behalf of U.S.A. All rights reserved.
 31 30  0  0  0  0  0  0  0  0999 V2000
    5.1466    3.5783    0.9124 C    0  0  0  0  0  0  0  0  0  0  0  0
    4.6907    4.3727    1.9894 O    0  0  0  0  0  0  0  0  0  0  0  0
    3.6813    5.2875    1.6149 C    0  0  0  0  0  0  0  0  0  0  0  0
    6.2369    2.6616    1.4480 C    0  0  0  0  0  0  0  0  0  0  0  0
    3.2180    6.0517    2.8391 C    0  0  0  0  0  0  0  0  0  0  0  0
    6.6739    1.8597    0.3581 O    0  0  0  0  0  0  0  0  0  0  0  0
    2.4668    5.1905    3.6707 O    0  0  0  0  0  0  0  0  0  0  0  0
    7.5371    0.7926    0.6946 C    0  0  0  0  0  0  0  0  0  0  0  0
    2.0398    5.8083    4.8682 C    0  0  0  0  0  0  0  0  0  0  0  0
    8.9925    1.1990    0.9225 C    0  0  0  0  0  0  0  0  0  0  0  0
    1.2460    4.7806    5.6601 C    0  0  0  0  0  0  0  0  0  0  0  0
    9.2137    1.9637    2.1025 O    0  0  0  0  0  0  0  0  0  0  0  0
    0.8175    5.4193    6.8568 O    0  0  0  0  0  0  0  0  0  0  0  0
    5.5532    4.2041    0.1004 H    0  0  0  0  0  0  0  0  0  0  0  0
    4.3275    2.9755    0.4880 H    0  0  0  0  0  0  0  0  0  0  0  0
    2.8228    4.7616    1.1661 H    0  0  0  0  0  0  0  0  0  0  0  0
    4.0652    6.0035    0.8673 H    0  0  0  0  0  0  0  0  0  0  0  0
    5.8229    2.0308    2.2516 H    0  0  0  0  0  0  0  0  0  0  0  0
    7.0578    3.2514    1.8703 H    0  0  0  0  0  0  0  0  0  0  0  0
    2.6044    6.9111    2.5167 H    0  0  0  0  0  0  0  0  0  0  0  0
    4.0951    6.4479    3.3761 H    0  0  0  0  0  0  0  0  0  0  0  0
    7.5011    0.0983   -0.1548 H    0  0  0  0  0  0  0  0  0  0  0  0
    7.1565    0.2509    1.5805 H    0  0  0  0  0  0  0  0  0  0  0  0
    1.4044    6.6855    4.6611 H    0  0  0  0  0  0  0  0  0  0  0  0
    2.8983    6.1539    5.4662 H    0  0  0  0  0  0  0  0  0  0  0  0
    9.3187    1.8346    0.0935 H    0  0  0  0  0  0  0  0  0  0  0  0
    9.6169    0.2886    0.9142 H    0  0  0  0  0  0  0  0  0  0  0  0
    0.3966    4.4355    5.0509 H    0  0  0  0  0  0  0  0  0  0  0  0
    1.8885    3.9107    5.8641 H    0  0  0  0  0  0  0  0  0  0  0  0
    8.9783    1.4092    2.8631 H    0  0  0  0  0  0  0  0  0  0  0  0
    0.3208    4.7713    7.3774 H    0  0  0  0  0  0  0  0  0  0  0  0
  1  2  1  0  0  0  0
  1  4  1  0  0  0  0
  1 14  1  0  0  0  0
  1 15  1  0  0  0  0
  2  3  1  0  0  0  0
  3  5  1  0  0  0  0
  3 16  1  0  0  0  0
  3 17  1  0  0  0  0
  4  6  1  0  0  0  0
  4 18  1  0  0  0  0
  4 19  1  0  0  0  0
  5  7  1  0  0  0  0
  5 20  1  0  0  0  0
  5 21  1  0  0  0  0
  6  8  1  0  0  0  0
  7  9  1  0  0  0  0
  8 10  1  0  0  0  0
  8 22  1  0  0  0  0
  8 23  1  0  0  0  0
  9 11  1  0  0  0  0
  9 24  1  0  0  0  0
  9 25  1  0  0  0  0
 10 12  1  0  0  0  0
 10 26  1  0  0  0  0
 10 27  1  0  0  0  0
 11 13  1  0  0  0  0
 11 28  1  0  0  0  0
 11 29  1  0  0  0  0
 12 30  1  0  0  0  0
 13 31  1  0  0  0  0
M  END
