
 OpenBabel05302315273D

 29 28  0  0  0  0  0  0  0  0999 V2000
   -0.5574   -1.6093    0.0367 Si  0  0  0  0  0  0  0  0  0  0  0  0
    1.2462   -1.3678   -0.4456 C   0  0  0  0  0  0  0  0  0  0  0  0
   -1.4173    0.0630    0.2092 C   0  0  0  0  0  0  0  0  0  0  0  0
   -0.6656   -2.3964    1.7434 C   0  0  0  0  0  0  0  0  0  0  0  0
   -1.3686   -2.7996   -1.1865 C   0  0  0  0  0  0  0  0  0  0  0  0
    1.9929   -0.4947    0.5552 C   0  0  0  0  0  0  0  0  0  0  0  0
   -1.3103    0.9560   -1.0203 C   0  0  0  0  0  0  0  0  0  0  0  0
    0.0483   -3.7410    1.8119 C   0  0  0  0  0  0  0  0  0  0  0  0
   -1.2988   -2.3522   -2.6405 C   0  0  0  0  0  0  0  0  0  0  0  0
    1.2887   -0.8941   -1.4482 H   0  0  0  0  0  0  0  0  0  0  0  0
    1.7359   -2.3622   -0.5028 H   0  0  0  0  0  0  0  0  0  0  0  0
   -0.9320    0.5920    1.0561 H   0  0  0  0  0  0  0  0  0  0  0  0
   -2.4843   -0.1032    0.4668 H   0  0  0  0  0  0  0  0  0  0  0  0
   -1.7364   -2.5327    2.0030 H   0  0  0  0  0  0  0  0  0  0  0  0
   -0.2077   -1.7046    2.4808 H   0  0  0  0  0  0  0  0  0  0  0  0
   -2.4276   -2.9553   -0.8918 H   0  0  0  0  0  0  0  0  0  0  0  0
   -0.8333   -3.7682   -1.1093 H   0  0  0  0  0  0  0  0  0  0  0  0
    3.0484   -0.3813    0.2302 H   0  0  0  0  0  0  0  0  0  0  0  0
    1.5332    0.5140    0.6129 H   0  0  0  0  0  0  0  0  0  0  0  0
    1.9840   -0.9613    1.5624 H   0  0  0  0  0  0  0  0  0  0  0  0
   -1.7901    1.9334   -0.8028 H   0  0  0  0  0  0  0  0  0  0  0  0
   -0.2464    1.1378   -1.2793 H   0  0  0  0  0  0  0  0  0  0  0  0
   -1.8339    0.5168   -1.8857 H   0  0  0  0  0  0  0  0  0  0  0  0
   -0.4090   -4.4658    1.1076 H   0  0  0  0  0  0  0  0  0  0  0  0
   -0.0398   -4.1522    2.8394 H   0  0  0  0  0  0  0  0  0  0  0  0
    1.1258   -3.6225    1.5725 H   0  0  0  0  0  0  0  0  0  0  0  0
   -0.2445   -2.1979   -2.9519 H   0  0  0  0  0  0  0  0  0  0  0  0
   -1.7435   -3.1393   -3.2852 H   0  0  0  0  0  0  0  0  0  0  0  0
   -1.8782   -1.4279   -2.8038 H   0  0  0  0  0  0  0  0  0  0  0  0
  1  2  1  0  0  0  0
  1  3  1  0  0  0  0
  1  4  1  0  0  0  0
  1  5  1  0  0  0  0
  2  6  1  0  0  0  0
  2 10  1  0  0  0  0
  2 11  1  0  0  0  0
  3  7  1  0  0  0  0
  3 12  1  0  0  0  0
  3 13  1  0  0  0  0
  4  8  1  0  0  0  0
  4 14  1  0  0  0  0
  4 15  1  0  0  0  0
  5  9  1  0  0  0  0
  5 16  1  0  0  0  0
  5 17  1  0  0  0  0
  6 18  1  0  0  0  0
  6 19  1  0  0  0  0
  6 20  1  0  0  0  0
  7 21  1  0  0  0  0
  7 22  1  0  0  0  0
  7 23  1  0  0  0  0
  8 24  1  0  0  0  0
  8 25  1  0  0  0  0
  8 26  1  0  0  0  0
  9 27  1  0  0  0  0
  9 28  1  0  0  0  0
  9 29  1  0  0  0  0
M  END
