
 OpenBabel09132122363D

 21 22  0  0  0  0  0  0  0  0999 V2000
   -3.2563    2.5341   -1.4620 O   0  0  0  0  0  0  0  0  0  0  0  0
   -0.6994   -1.1916   -1.9192 O   0  0  0  0  0  0  0  0  0  0  0  0
   -1.3721   -0.6223    0.1603 N   0  0  0  0  0  0  0  0  0  0  0  0
   -1.9703    0.6810   -1.7911 N   0  0  0  0  0  0  0  0  0  0  0  0
   -3.3126    2.0290    1.3474 N   0  0  0  0  0  0  0  0  0  0  0  0
   -2.2505    0.2529    2.2471 N   0  0  0  0  0  0  0  0  0  0  0  0
   -2.0738    0.2689    0.9120 C   0  0  0  0  0  0  0  0  0  0  0  0
   -2.7105    1.3337    0.3724 C   0  0  0  0  0  0  0  0  0  0  0  0
   -2.6767    1.5691   -0.9912 C   0  0  0  0  0  0  0  0  0  0  0  0
   -1.3206   -0.4114   -1.2126 C   0  0  0  0  0  0  0  0  0  0  0  0
   -0.6893   -1.7707    0.7700 C   0  0  0  0  0  0  0  0  0  0  0  0
   -1.8932    0.8714   -3.2488 C   0  0  0  0  0  0  0  0  0  0  0  0
   -3.0165    1.3490    2.4803 C   0  0  0  0  0  0  0  0  0  0  0  0
   -3.8825    2.8995    1.2589 H   0  0  0  0  0  0  0  0  0  0  0  0
   -1.0949   -2.7149    0.3484 H   0  0  0  0  0  0  0  0  0  0  0  0
    0.3996   -1.7150    0.5581 H   0  0  0  0  0  0  0  0  0  0  0  0
   -0.8240   -1.8005    1.8718 H   0  0  0  0  0  0  0  0  0  0  0  0
   -2.4467    1.7705   -3.5915 H   0  0  0  0  0  0  0  0  0  0  0  0
   -0.8321    0.9886   -3.5562 H   0  0  0  0  0  0  0  0  0  0  0  0
   -2.3265   -0.0112   -3.7658 H   0  0  0  0  0  0  0  0  0  0  0  0
   -3.3533    1.6460    3.4646 H   0  0  0  0  0  0  0  0  0  0  0  0
  1  9  2  0  0  0  0
  2 10  2  0  0  0  0
  3  7  1  0  0  0  0
  3 10  1  0  0  0  0
  3 11  1  0  0  0  0
  4  9  1  0  0  0  0
  4 10  1  0  0  0  0
  4 12  1  0  0  0  0
  5  8  1  0  0  0  0
  5 13  1  0  0  0  0
  5 14  1  0  0  0  0
  6  7  1  0  0  0  0
  6 13  2  0  0  0  0
  7  8  2  0  0  0  0
  8  9  1  0  0  0  0
 11 15  1  0  0  0  0
 11 16  1  0  0  0  0
 11 17  1  0  0  0  0
 12 18  1  0  0  0  0
 12 19  1  0  0  0  0
 12 20  1  0  0  0  0
 13 21  1  0  0  0  0
M  END
