
 OpenBabel05292313583D

 36 35  0  0  0  0  0  0  0  0999 V2000
    2.4895   -0.1619    0.0398 C   0  0  0  0  0  0  0  0  0  0  0  0
    1.3697    0.2543   -0.9686 C   0  0  0  0  0  0  0  0  0  0  0  0
   -2.4609   -0.2913   -0.0214 C   0  0  0  0  0  0  0  0  0  0  0  0
    0.0057    0.5838   -0.3596 C   0  0  0  0  0  0  0  0  0  0  0  0
   -0.9991   -0.3295   -0.5019 C   0  0  0  0  0  0  0  0  0  0  0  0
    3.7609   -0.4988   -0.7683 C   0  0  0  0  0  0  0  0  0  0  0  0
    2.8422    0.9569    1.0405 C   0  0  0  0  0  0  0  0  0  0  0  0
    2.0527   -1.4176    0.8234 C   0  0  0  0  0  0  0  0  0  0  0  0
   -3.1342   -1.6170   -0.4491 C   0  0  0  0  0  0  0  0  0  0  0  0
   -3.2536    0.8598   -0.6724 C   0  0  0  0  0  0  0  0  0  0  0  0
   -2.5540   -0.1986    1.5144 C   0  0  0  0  0  0  0  0  0  0  0  0
   -0.1515    1.9188    0.3316 C   0  0  0  0  0  0  0  0  0  0  0  0
    1.2595   -0.5966   -1.6781 H   0  0  0  0  0  0  0  0  0  0  0  0
    1.6926    1.1152   -1.5940 H   0  0  0  0  0  0  0  0  0  0  0  0
   -0.7310   -1.2412   -1.0318 H   0  0  0  0  0  0  0  0  0  0  0  0
    4.1074    0.3881   -1.3419 H   0  0  0  0  0  0  0  0  0  0  0  0
    4.5853   -0.8199   -0.0950 H   0  0  0  0  0  0  0  0  0  0  0  0
    3.5666   -1.3236   -1.4878 H   0  0  0  0  0  0  0  0  0  0  0  0
    1.9920    1.1849    1.7131 H   0  0  0  0  0  0  0  0  0  0  0  0
    3.6845    0.6421    1.6942 H   0  0  0  0  0  0  0  0  0  0  0  0
    3.1489    1.8808    0.5047 H   0  0  0  0  0  0  0  0  0  0  0  0
    2.8583   -1.7522    1.5124 H   0  0  0  0  0  0  0  0  0  0  0  0
    1.8207   -2.2536    0.1287 H   0  0  0  0  0  0  0  0  0  0  0  0
    1.1469   -1.2091    1.4322 H   0  0  0  0  0  0  0  0  0  0  0  0
   -3.1093   -1.7338   -1.5548 H   0  0  0  0  0  0  0  0  0  0  0  0
   -4.1976   -1.6485   -0.1254 H   0  0  0  0  0  0  0  0  0  0  0  0
   -2.6128   -2.4886    0.0041 H   0  0  0  0  0  0  0  0  0  0  0  0
   -4.3250    0.8049   -0.3808 H   0  0  0  0  0  0  0  0  0  0  0  0
   -2.9012    1.8532   -0.3517 H   0  0  0  0  0  0  0  0  0  0  0  0
   -3.1924    0.7984   -1.7804 H   0  0  0  0  0  0  0  0  0  0  0  0
   -3.6137   -0.2661    1.8435 H   0  0  0  0  0  0  0  0  0  0  0  0
   -2.1710    0.7596    1.9021 H   0  0  0  0  0  0  0  0  0  0  0  0
   -1.9886   -1.0286    1.9908 H   0  0  0  0  0  0  0  0  0  0  0  0
   -0.9129    2.5397   -0.1689 H   0  0  0  0  0  0  0  0  0  0  0  0
   -0.3799    1.7981    1.4051 H   0  0  0  0  0  0  0  0  0  0  0  0
    0.7804    2.5140    0.2625 H   0  0  0  0  0  0  0  0  0  0  0  0
  1  2  1  0  0  0  0
  1  6  1  0  0  0  0
  1  7  1  0  0  0  0
  1  8  1  0  0  0  0
  2  4  1  0  0  0  0
  2 13  1  0  0  0  0
  2 14  1  0  0  0  0
  3  5  1  0  0  0  0
  3  9  1  0  0  0  0
  3 10  1  0  0  0  0
  3 11  1  0  0  0  0
  4  5  2  0  0  0  0
  4 12  1  0  0  0  0
  5 15  1  0  0  0  0
  6 16  1  0  0  0  0
  6 17  1  0  0  0  0
  6 18  1  0  0  0  0
  7 19  1  0  0  0  0
  7 20  1  0  0  0  0
  7 21  1  0  0  0  0
  8 22  1  0  0  0  0
  8 23  1  0  0  0  0
  8 24  1  0  0  0  0
  9 25  1  0  0  0  0
  9 26  1  0  0  0  0
  9 27  1  0  0  0  0
 10 28  1  0  0  0  0
 10 29  1  0  0  0  0
 10 30  1  0  0  0  0
 11 31  1  0  0  0  0
 11 32  1  0  0  0  0
 11 33  1  0  0  0  0
 12 34  1  0  0  0  0
 12 35  1  0  0  0  0
 12 36  1  0  0  0  0
M  END
