
 OpenBabel11292310153D

  6  5  0  0  0  0  0  0  0  0999 V2000
    2.2847    1.8795   -0.7948 C   0  0  0  0  0  0  0  0  0  0  0  0
    2.2843    2.4972   -1.9817 C   0  0  0  0  0  0  0  0  0  0  0  0
    0.9422    2.0486   -3.4573 I   0  0  0  0  0  0  0  0  0  0  0  0
    3.6268    2.3281    0.6809 I   0  0  0  0  0  0  0  0  0  0  0  0
    1.5632    1.1032   -0.5604 H   0  0  0  0  0  0  0  0  0  0  0  0
    3.0058    3.2736   -2.2161 H   0  0  0  0  0  0  0  0  0  0  0  0
  1  4  1  0  0  0  0
  1  2  2  0  0  0  0
  1  5  1  0  0  0  0
  2  3  1  0  0  0  0
  2  6  1  0  0  0  0
M  END
