
 OpenBabel05292314003D

 10  9  0  0  0  0  0  0  0  0999 V2000
    2.3966   -0.2208   -0.0001 N   0  0  0  0  0  0  0  0  0  0  0  0
   -2.5229   -0.0086   -0.0001 C   0  0  0  0  0  0  0  0  0  0  0  0
   -1.0775   -0.3839    0.0001 C   0  0  0  0  0  0  0  0  0  0  0  0
   -0.0789    0.5090    0.0001 C   0  0  0  0  0  0  0  0  0  0  0  0
    1.2827    0.1044    0.0000 C   0  0  0  0  0  0  0  0  0  0  0  0
   -3.0145   -0.4195    0.8870 H   0  0  0  0  0  0  0  0  0  0  0  0
   -2.6704    1.0760   -0.0002 H   0  0  0  0  0  0  0  0  0  0  0  0
   -3.0143   -0.4197   -0.8872 H   0  0  0  0  0  0  0  0  0  0  0  0
   -0.8557   -1.4488    0.0002 H   0  0  0  0  0  0  0  0  0  0  0  0
   -0.2908    1.5732   -0.0001 H   0  0  0  0  0  0  0  0  0  0  0  0
  1  5  3  0  0  0  0
  2  3  1  0  0  0  0
  2  6  1  0  0  0  0
  2  7  1  0  0  0  0
  2  8  1  0  0  0  0
  3  4  2  0  0  0  0
  3  9  1  0  0  0  0
  4  5  1  0  0  0  0
  4 10  1  0  0  0  0
M  END
