
 OpenBabel11042216553D

  8  7  0  0  0  0  0  0  0  0999 V2000
    0.8620   -1.6620   -0.1921 Cl  0  0  0  0  0  0  0  0  0  0  0  0
    1.1754    0.9347   -1.4275 Cl  0  0  0  0  0  0  0  0  0  0  0  0
    1.2117    0.6990    1.4553 Cl  0  0  0  0  0  0  0  0  0  0  0  0
   -1.6716    0.9870   -0.8980 O   0  0  0  0  0  0  0  0  0  0  0  0
   -1.6608   -0.2875    0.9263 O   0  0  0  0  0  0  0  0  0  0  0  0
    0.4685    0.0684   -0.0358 C   0  0  0  0  0  0  0  0  0  0  0  0
   -1.0253    0.2452    0.0279 C   0  0  0  0  0  0  0  0  0  0  0  0
   -2.6312    1.1086   -0.8685 H   0  0  0  0  0  0  0  0  0  0  0  0
  1  6  1  0  0  0  0
  2  6  1  0  0  0  0
  3  6  1  0  0  0  0
  4  7  1  0  0  0  0
  4  8  1  0  0  0  0
  5  7  2  0  0  0  0
  6  7  1  0  0  0  0
M  END
