
 OpenBabel05212311333D

 22 21  0  0  0  0  0  0  0  0999 V2000
    0.2190    0.0885   -0.2674 N   0  0  0  0  0  0  0  0  0  0  0  0
    1.6855   -0.0487   -0.2936 C   0  0  0  0  0  0  0  0  0  0  0  0
   -0.1974    1.4393   -0.6825 C   0  0  0  0  0  0  0  0  0  0  0  0
   -0.3498   -0.3451    1.0192 C   0  0  0  0  0  0  0  0  0  0  0  0
    2.1418   -1.5028   -0.3666 C   0  0  0  0  0  0  0  0  0  0  0  0
    0.1837    2.5837    0.2527 C   0  0  0  0  0  0  0  0  0  0  0  0
   -1.8758   -0.3419    1.0514 C   0  0  0  0  0  0  0  0  0  0  0  0
    2.1487    0.4400    0.5721 H   0  0  0  0  0  0  0  0  0  0  0  0
    2.0836    0.4461   -1.1888 H   0  0  0  0  0  0  0  0  0  0  0  0
   -1.2818    1.4563   -0.8420 H   0  0  0  0  0  0  0  0  0  0  0  0
    0.2222    1.6477   -1.6755 H   0  0  0  0  0  0  0  0  0  0  0  0
    0.0339    0.2601    1.8492 H   0  0  0  0  0  0  0  0  0  0  0  0
   -0.0456   -1.3778    1.2212 H   0  0  0  0  0  0  0  0  0  0  0  0
    3.2243   -1.5444   -0.5283 H   0  0  0  0  0  0  0  0  0  0  0  0
    1.6597   -2.0263   -1.1989 H   0  0  0  0  0  0  0  0  0  0  0  0
    1.9297   -2.0483    0.5573 H   0  0  0  0  0  0  0  0  0  0  0  0
   -0.1516    3.5351   -0.1737 H   0  0  0  0  0  0  0  0  0  0  0  0
    1.2668    2.6503    0.3920 H   0  0  0  0  0  0  0  0  0  0  0  0
   -0.2882    2.4811    1.2343 H   0  0  0  0  0  0  0  0  0  0  0  0
   -2.2288   -0.8152    1.9739 H   0  0  0  0  0  0  0  0  0  0  0  0
   -2.2900   -0.9042    0.2080 H   0  0  0  0  0  0  0  0  0  0  0  0
   -2.2836    0.6731    1.0301 H   0  0  0  0  0  0  0  0  0  0  0  0
  1  2  1  0  0  0  0
  1  3  1  0  0  0  0
  1  4  1  0  0  0  0
  2  5  1  0  0  0  0
  2  8  1  0  0  0  0
  2  9  1  0  0  0  0
  3  6  1  0  0  0  0
  3 10  1  0  0  0  0
  3 11  1  0  0  0  0
  4  7  1  0  0  0  0
  4 12  1  0  0  0  0
  4 13  1  0  0  0  0
  5 14  1  0  0  0  0
  5 15  1  0  0  0  0
  5 16  1  0  0  0  0
  6 17  1  0  0  0  0
  6 18  1  0  0  0  0
  6 19  1  0  0  0  0
  7 20  1  0  0  0  0
  7 21  1  0  0  0  0
  7 22  1  0  0  0  0
M  END
