
 OpenBabel05292314253D

 22 21  0  0  0  0  0  0  0  0999 V2000
    2.1123   -1.2188   -0.8825 Al  0  0  0  0  0  0  0  0  0  0  0  0
    3.8679   -0.6841   -0.0781 C   0  0  0  0  0  0  0  0  0  0  0  0
    0.7382    0.1965   -0.5411 C   0  0  0  0  0  0  0  0  0  0  0  0
    1.4802   -2.9656   -0.1301 C   0  0  0  0  0  0  0  0  0  0  0  0
    4.3497    0.6529   -0.6231 C   0  0  0  0  0  0  0  0  0  0  0  0
    0.5607    0.4626    0.9471 C   0  0  0  0  0  0  0  0  0  0  0  0
    2.0870   -3.2578    1.2353 C   0  0  0  0  0  0  0  0  0  0  0  0
    3.7483   -0.6155    1.0236 H   0  0  0  0  0  0  0  0  0  0  0  0
    4.6144   -1.4723   -0.3105 H   0  0  0  0  0  0  0  0  0  0  0  0
    1.0585    1.1289   -1.0514 H   0  0  0  0  0  0  0  0  0  0  0  0
   -0.2264   -0.1385   -0.9771 H   0  0  0  0  0  0  0  0  0  0  0  0
    0.3741   -2.9253   -0.0430 H   0  0  0  0  0  0  0  0  0  0  0  0
    1.7548   -3.7737   -0.8401 H   0  0  0  0  0  0  0  0  0  0  0  0
    5.3242    0.9131   -0.1591 H   0  0  0  0  0  0  0  0  0  0  0  0
    4.4838    0.5947   -1.7242 H   0  0  0  0  0  0  0  0  0  0  0  0
    3.6184    1.4540   -0.3842 H   0  0  0  0  0  0  0  0  0  0  0  0
    1.5161    0.8096    1.3947 H   0  0  0  0  0  0  0  0  0  0  0  0
   -0.2068    1.2513    1.0939 H   0  0  0  0  0  0  0  0  0  0  0  0
    0.2251   -0.4596    1.4669 H   0  0  0  0  0  0  0  0  0  0  0  0
    1.7020   -4.2285    1.6123 H   0  0  0  0  0  0  0  0  0  0  0  0
    3.1932   -3.3210    1.1611 H   0  0  0  0  0  0  0  0  0  0  0  0
    1.8126   -2.4611    1.9587 H   0  0  0  0  0  0  0  0  0  0  0  0
  1  2  1  0  0  0  0
  1  3  1  0  0  0  0
  1  4  1  0  0  0  0
  2  5  1  0  0  0  0
  2  8  1  0  0  0  0
  2  9  1  0  0  0  0
  3  6  1  0  0  0  0
  3 10  1  0  0  0  0
  3 11  1  0  0  0  0
  4  7  1  0  0  0  0
  4 12  1  0  0  0  0
  4 13  1  0  0  0  0
  5 14  1  0  0  0  0
  5 15  1  0  0  0  0
  5 16  1  0  0  0  0
  6 17  1  0  0  0  0
  6 18  1  0  0  0  0
  6 19  1  0  0  0  0
  7 20  1  0  0  0  0
  7 21  1  0  0  0  0
  7 22  1  0  0  0  0
M  END
