
 OpenBabel05302315403D

  4  3  0  0  0  0  0  0  0  0999 V2000
   -0.8777    0.1694   -0.0017 C   0  0  0  0  0  0  0  0  0  0  0  0
    1.0000   -0.4953   -0.0015 Al  0  0  0  0  0  0  0  0  0  0  0  0
    1.9378    0.1649    1.6271 C   0  0  0  0  0  0  0  0  0  0  0  0
    1.9406    0.1717   -1.6257 C   0  0  0  0  0  0  0  0  0  0  0  0
  1  2  1  0  0  0  0
  2  4  1  0  0  0  0
  2  3  1  0  0  0  0
M  END
