
 OpenBabel11062311123D

 14 13  0  0  0  0  0  0  0  0999 V2000
    1.9890   -0.0019   -0.0011 Cl  0  0  0  0  0  0  0  0  0  0  0  0
   -0.0686    0.0000    0.0001 Si  0  0  0  0  0  0  0  0  0  0  0  0
   -0.6420   -1.3484   -1.1438 C   0  0  0  0  0  0  0  0  0  0  0  0
   -0.6394   -0.3158    1.7407 C   0  0  0  0  0  0  0  0  0  0  0  0
   -0.6388    1.6660   -0.5958 C   0  0  0  0  0  0  0  0  0  0  0  0
   -0.2795   -2.3266   -0.8130 H   0  0  0  0  0  0  0  0  0  0  0  0
   -1.7349   -1.3906   -1.1799 H   0  0  0  0  0  0  0  0  0  0  0  0
   -0.2792   -1.1817   -2.1627 H   0  0  0  0  0  0  0  0  0  0  0  0
   -0.2770   -1.2819    2.1052 H   0  0  0  0  0  0  0  0  0  0  0  0
   -0.2752    0.4594    2.4218 H   0  0  0  0  0  0  0  0  0  0  0  0
   -1.7323   -0.3249    1.7971 H   0  0  0  0  0  0  0  0  0  0  0  0
   -1.7316    1.7204   -0.6143 H   0  0  0  0  0  0  0  0  0  0  0  0
   -0.2745    2.4643    0.0580 H   0  0  0  0  0  0  0  0  0  0  0  0
   -0.2760    1.8678   -1.6083 H   0  0  0  0  0  0  0  0  0  0  0  0
  1  2  1  0  0  0  0
  2  3  1  0  0  0  0
  2  4  1  0  0  0  0
  2  5  1  0  0  0  0
  3  6  1  0  0  0  0
  3  7  1  0  0  0  0
  3  8  1  0  0  0  0
  4  9  1  0  0  0  0
  4 10  1  0  0  0  0
  4 11  1  0  0  0  0
  5 12  1  0  0  0  0
  5 13  1  0  0  0  0
  5 14  1  0  0  0  0
M  END
