
 OpenBabel09102110143D

 12 12  0  0  0  0  0  0  0  0999 V2000
   -0.2041    1.4035   -0.1998 C   0  0  0  0  0  0  0  0  0  0  0  0
   -1.3624    0.6284   -0.1592 C   0  0  0  0  0  0  0  0  0  0  0  0
   -1.2449   -0.7457    0.0544 C   0  0  0  0  0  0  0  0  0  0  0  0
   -0.0042   -1.3084    0.2197 N   0  0  0  0  0  0  0  0  0  0  0  0
    1.0138    0.8238   -0.0334 N   0  0  0  0  0  0  0  0  0  0  0  0
    1.1242   -0.5283    0.1764 C   0  0  0  0  0  0  0  0  0  0  0  0
    0.0820   -2.3385    0.3797 H   0  0  0  0  0  0  0  0  0  0  0  0
    1.8716    1.4201   -0.0668 H   0  0  0  0  0  0  0  0  0  0  0  0
   -0.2773    2.4711   -0.3646 H   0  0  0  0  0  0  0  0  0  0  0  0
   -2.3330    1.0908   -0.2919 H   0  0  0  0  0  0  0  0  0  0  0  0
   -2.2432   -1.4436    0.0939 O   0  0  0  0  0  0  0  0  0  0  0  0
    2.2230   -1.0353    0.3241 O   0  0  0  0  0  0  0  0  0  0  0  0
  1  2  2  0  0  0  0
  1  5  1  0  0  0  0
  1  9  1  0  0  0  0
  2  3  1  0  0  0  0
  2 10  1  0  0  0  0
  3  4  1  0  0  0  0
  3 11  2  0  0  0  0
  4  6  1  0  0  0  0
  4  7  1  0  0  0  0
  5  6  1  0  0  0  0
  5  8  1  0  0  0  0
  6 12  2  0  0  0  0
M  END
