
 OpenBabel05292318123D

 16 14  0  0  0  0  0  0  0  0999 V2000
   -2.5314   -4.8261    1.9691 C   0  0  0  0  0  0  0  0  0  0  0  0
   -1.0776   -4.6179    1.6916 C   0  0  0  0  0  0  0  0  0  0  0  0
   -0.1823   -5.4019    1.9766 O   0  0  0  0  0  0  0  0  0  0  0  0
   -3.1175   -3.9675    1.6285 H   0  0  0  0  0  0  0  0  0  0  0  0
   -2.8774   -5.7151    1.4365 H   0  0  0  0  0  0  0  0  0  0  0  0
   -2.6808   -4.9405    3.0455 H   0  0  0  0  0  0  0  0  0  0  0  0
   -0.8291   -3.4485    1.0754 O   0  0  0  0  0  0  0  0  0  0  0  0
    0.1528   -3.3984    0.9343 H   0  0  0  0  0  0  0  0  0  0  0  0
    4.1250   -4.1522    0.8731 C   0  0  0  0  0  0  0  0  0  0  0  0
    2.6697   -4.3669    1.1376 C   0  0  0  0  0  0  0  0  0  0  0  0
    1.7735   -3.5868    0.8449 O   0  0  0  0  0  0  0  0  0  0  0  0
    4.2863   -4.0555   -0.2032 H   0  0  0  0  0  0  0  0  0  0  0  0
    4.7139   -4.9994    1.2368 H   0  0  0  0  0  0  0  0  0  0  0  0
    4.4578   -3.2512    1.3940 H   0  0  0  0  0  0  0  0  0  0  0  0
    2.4208   -5.5383    1.7497 O   0  0  0  0  0  0  0  0  0  0  0  0
    1.4382   -5.5916    1.8845 H   0  0  0  0  0  0  0  0  0  0  0  0
  1  6  1  0  0  0  0
  2  1  1  0  0  0  0
  2  3  2  0  0  0  0
  4  1  1  0  0  0  0
  5  1  1  0  0  0  0
  7  2  1  0  0  0  0
  8  7  1  0  0  0  0
  9 10  1  0  0  0  0
  9 13  1  0  0  0  0
  9 14  1  0  0  0  0
 10 15  1  0  0  0  0
 11 10  2  0  0  0  0
 12  9  1  0  0  0  0
 15 16  1  0  0  0  0
M  END
