  CARBONYL SULFIDE.mol	463-58-1
  NIST    07061515513D 1   1.00000  -511.53554
Copyright by the U.S. Sec. Commerce on behalf of U.S.A. All rights reserved.
  3  2  0  0  0  0  0  0  0  0999 V2000
   17.0193    9.0116    0.0000 C    0  0  0  0  0  0  0  0  0  0  0  0
   18.0237    9.6021    0.0000 O    0  0  0  0  0  0  0  0  0  0  0  0
   15.6627    8.2132    0.0000 S    0  0  0  0  0  0  0  0  0  0  0  0
  1  2  2  0  0  0  0
  1  3  2  0  0  0  0
M  END
