  CYANOGEN CHLORIDE.mol	506-77-4
  NIST    08101209303D 1   1.00000  -553.00830
Copyright by the U.S. Sec. Commerce on behalf of U.S.A. All rights reserved.
  3  2  0  0  0  0  0  0  0  0999 V2000
    0.0000    0.0000    0.6711 C    0  0  0  0  0  0  0  0  0  0  0  0
    0.0000    0.0000   -0.9744 Cl   0  0  0  0  0  0  0  0  0  0  0  0
    0.0000    0.0000    1.8345 N    0  0  0  0  0  0  0  0  0  0  0  0
  1  2  1  0
  1  3  3  0
M  END
