10
1-BUTYNE.gamout
C          2.21379        0.80528        0.89028
C          1.01205        0.96331        0.88587
C          3.66628        0.61758        0.88808
C          4.45816        1.93651        0.89317
H         -0.05101        1.10279        0.88197
H          3.94816        0.01192        1.76534
H          3.94564        0.02008        0.00448
H          5.53858        1.73200        0.89120
H          4.21762        2.54023        0.00716
H          4.21932        2.53218        1.78506
