36
2-HISOQUIN+1.gamout
C          0.82428       -1.18955       -0.05147
C          0.12784       -2.44387       -0.06016
C          2.22423       -1.15313       -0.30087
C          0.84608       -3.62577       -0.35867
C          2.20291       -3.56151       -0.60391
H          0.32264       -4.58144       -0.38791
C          0.08817       -0.02257        0.21988
C         -1.25843       -2.42687        0.25102
C         -1.89901       -1.24833        0.51894
H         -1.82001       -3.35885        0.29335
N         -1.21682       -0.05432        0.48784
H          0.57106        0.95280        0.22769
H         -2.95690       -1.18902        0.76927
C         -1.96480        1.20599        0.75149
C         -2.95143        1.55013       -0.36997
H         -1.21765        2.00016        0.86697
H         -2.46642        1.07700        1.71773
C         -3.54280        2.96658       -0.23685
H         -3.76864        0.81294       -0.38066
H         -2.42663        1.45959       -1.33366
C         -4.31610        3.22384        1.06389
H         -2.73404        3.70638       -0.34574
H         -4.21425        3.12540       -1.09446
C         -5.03811        4.57803        1.10857
H         -5.06071        2.42247        1.20304
H         -3.62792        3.16090        1.92524
C         -4.11342        5.79680        1.04812
H         -5.62868        4.61951        2.03607
H         -5.76810        4.62754        0.28390
H         -3.37070        5.77908        1.86090
H         -3.56825        5.85464        0.09456
H         -4.69006        6.72569        1.14858
C          2.89592       -2.32522       -0.56050
H          2.75922       -4.47515       -0.82534
H          2.75183       -0.20070       -0.27599
H          3.97208       -2.31417       -0.73560
