27
9-METHYLANTHRACENE.gamout
C          5.74291        2.20536        3.74046
C          4.27535        2.11617        4.09248
C          3.81547        2.55912        5.36263
C          3.34804        1.56140        3.16917
C          2.42109        2.40385        5.72195
C          4.67814        3.17289        6.33766
C          1.95634        1.41207        3.54150
C          3.72193        1.13041        1.84794
C          1.52992        1.82941        4.80790
C          1.97306        2.83834        7.01389
C          4.21045        3.57927        7.56179
C          1.03401        0.83373        2.60693
C          2.80880        0.58586        0.98085
C          2.83806        3.40572        7.91217
C          1.44328        0.42732        1.36407
H          5.91073        2.32554        2.66520
H          6.27540        1.28823        4.04660
H          6.24138        3.04358        4.23785
H          5.72559        3.33062        6.09370
H          4.75258        1.25117        1.52429
H          0.48249        1.70574        5.08714
H          0.91943        2.70427        7.26487
H          4.88879        4.04432        8.27889
H         -0.00800        0.72451        2.91257
H          3.12264        0.27135       -0.01580
H          2.48757        3.73050        8.89321
H          0.73446       -0.01340        0.66114
