20
ALPHA-D-XYLOPYRANOSE.gamout
C         -0.09765       28.87628       -0.03554
C          0.87804       30.04687       -0.14026
C          0.67464       27.54977        0.08083
O         -0.93199       28.77478       -1.19204
O          1.77365       29.86849       -1.22571
C          2.59074       28.70616       -1.07744
C          1.73145       27.42734       -1.04376
O          3.47436       28.64421       -2.13946
O          1.13492       27.11990       -2.28019
O          1.26919       27.54126        1.37249
H         -0.71866       28.99506        0.86815
H          0.34488       30.98992       -0.32791
H          1.42210       30.14357        0.81639
H         -0.04341       26.72334       -0.03914
H         -1.03552       29.64086       -1.60257
H          3.12186       28.79450       -0.10769
H          2.40866       26.58940       -0.81377
H          4.05456       29.41429       -2.11807
H          0.36040       27.69110       -2.39350
H          1.55988       26.65072        1.59513
