20
AMIM+1.gamout
C         -6.61851       -1.33760        0.42575
N         -5.19459       -1.37012        0.05843
H         -6.89592       -0.30668        0.68134
H         -6.78262       -1.97685        1.30011
H         -7.22905       -1.68871       -0.41614
C         -4.51104       -0.37118       -0.61491
C         -3.23760       -0.82338       -0.82399
H         -4.97757        0.56994       -0.88680
N         -3.16269       -2.08896       -0.27381
H         -2.38383       -0.35102       -1.29895
C         -4.35839       -2.39753        0.25101
H         -4.61389       -3.33576        0.73587
C         -2.01071       -3.00595       -0.36813
C         -0.67906       -2.38695       -0.02924
H         -1.98687       -3.39990       -1.39242
H         -2.22342       -3.85515        0.29488
C         -0.46249       -1.33802        0.76500
H          0.17181       -2.89380       -0.49749
H         -1.26737       -0.79977        1.27013
H          0.55191       -0.98292        0.94734
