42
ARTEMISININ.gamout
O         -1.54190       -3.29810       -1.38940
O         -2.16560       -2.78080        1.36000
O         -0.69470       -4.53650        1.32410
O         -2.60700       -3.71030       -0.71070
O         -0.34230       -6.67030        0.83730
C         -0.49800       -2.87980       -0.51550
C         -0.35380       -1.34390       -0.75890
C          0.77870       -3.64140       -0.94160
C          0.95960       -0.76850       -0.12710
C         -0.84220       -3.19530        1.00540
C          2.01410       -3.07680       -0.20340
C         -1.59230       -0.57970       -0.21300
C          2.18420       -1.59420       -0.55870
C          0.53880       -5.17170       -0.76940
C         -3.00570       -2.71070        0.21570
C         -2.96790       -1.26440       -0.39040
C          1.18920        0.70630       -0.49860
C         -0.16420       -5.50160        0.53110
C          1.82330       -5.99690       -0.94750
C         -4.43900       -3.05540        0.62550
H         -0.30070       -1.21160       -1.86410
H          0.97450       -3.47060       -2.02570
H          0.89770       -0.82550        0.98050
H         -0.14360       -2.65220        1.66890
H          2.93510       -3.59470       -0.54220
H          1.93250       -3.21220        0.89530
H         -1.63190        0.44760       -0.63140
H         -1.45970       -0.46700        0.88620
H          3.09610       -1.20640       -0.05380
H          2.33300       -1.49830       -1.65780
H         -0.16020       -5.50140       -1.57020
H         -3.66790       -0.60930        0.17500
H         -3.31110       -1.28100       -1.44730
H          1.26220        0.82500       -1.60090
H          0.37130        1.35080       -0.11920
H          2.13100        1.07390       -0.03790
H          1.58730       -7.08230       -0.92760
H          2.29270       -5.76700       -1.92760
H          2.54890       -5.79550       -0.13200
H         -4.81040       -2.33920        1.38950
H         -5.11280       -3.02210       -0.25770
H         -4.47460       -4.07700        1.06100
