25
B4CNPY+1.gamout
C         -0.43597       -1.97924       -0.90395
C         -0.31809       -0.58105       -0.30041
H         -1.48590       -2.30227       -0.91824
H          0.13136       -2.71257       -0.31353
H         -0.06435       -2.01644       -1.93867
C          1.11368       -0.01629       -0.26806
H         -0.71938       -0.59941        0.72548
H         -0.95480        0.12523       -0.85872
C          1.15737        1.22552        0.63504
H          1.43934        0.20624       -1.29431
H          1.81988       -0.76857        0.11066
N          2.04506        2.35573        0.21402
H          1.47679        0.95679        1.64809
H          0.15552        1.67225        0.71572
C          2.04826        2.77615       -1.06834
C          2.71323        3.04671        1.16268
C          3.37440        4.22334        0.86163
C          2.70273        3.93512       -1.43918
C          3.35715        4.69751       -0.45874
C          3.97248        5.94592       -0.79367
N          4.44564        6.97037       -1.05730
H          3.88080        4.77372        1.65181
H          2.68218        2.65083        2.17535
H          1.49594        2.17551       -1.78404
H          2.68097        4.24920       -2.47985
