30
BENZANTHRACENE.gamout
C          4.21910        1.51480        5.10120
C          4.63550        1.41910        3.71170
C          5.10020        1.05340        6.12030
C          2.98620        2.04400        5.45250
C          5.89340        0.87590        3.39990
C          3.80170        1.86080        2.66780
C          4.72260        1.13500        7.45260
C          6.38310        0.50270        5.75120
C          2.59540        2.13070        6.80030
C          6.76040        0.41830        4.45840
C          6.29770        0.78260        2.05540
C          4.21090        1.76350        1.35380
C          3.47260        1.67110        7.81140
C          1.32860        2.67370        7.17280
C          5.46530        1.22160        1.04570
C          3.06700        1.76310        9.17750
C          0.97010        2.74810        8.48650
C          1.85040        2.28660        9.50160
H          2.30850        2.39940        4.65950
H          2.81870        2.28430        2.92490
H          5.40020        0.77990        8.23890
H          7.04160        0.15520        6.55570
H          7.73430        0.00000        4.17940
H          7.27990        0.35800        1.81790
H          3.55660        2.10930        0.54690
H          0.65580        3.02680        6.38330
H          5.78130        1.14850        0.00000
H          3.75250        1.40530        9.95400
H          0.00000        3.16350        8.77830
H          1.53410        2.35960       10.54720
