24
BETA-D-FRUCTOPYRANOSE.gamout
O         -0.77034        1.10788       -0.64716
C         -2.07689        1.09889       -0.09651
C         -2.43851       -0.24580        0.53005
H         -2.75018        1.31652       -0.93640
H         -2.18326        1.89650        0.65866
C         -1.35116       -0.70551        1.50784
C          0.03556       -0.64218        0.84604
C          0.27775        0.77336        0.24811
C          1.56149        0.80301       -0.58838
O         -2.57115       -1.28556       -0.44372
H         -3.38033       -0.14249        1.09641
H         -3.39287       -1.18174       -0.93407
O         -1.64511       -1.98901        2.01887
H         -1.33984       -0.02557        2.37090
H         -1.91750       -2.54387        1.27461
O          1.01979       -0.98380        1.80163
H          0.04741       -1.34477       -0.00280
H          1.67109       -1.57848        1.42094
O          0.36186        1.69673        1.29835
H          0.86118        2.46177        0.97819
O          1.83013        2.15956       -0.91654
H          2.37938        0.38824        0.02189
H          1.42474        0.18229       -1.48832
H          2.68405        2.23611       -1.35293
