15
BTI-1.gamout
F         -2.30456        1.16296        3.64132
F         -1.25292        2.91189        2.90014
F         -3.41045        2.75240        2.67978
C         -2.25668        2.06266        2.66161
S         -2.05351        1.24121        0.95815
O         -2.83719       -0.00200        1.06858
O         -2.49321        2.29166        0.02661
O          1.88380        0.28596        1.02943
O          0.25183       -0.21127        2.91246
S          0.51160        0.00266        1.47565
N         -0.46551        1.05242        0.73637
F          1.23114       -2.48715        0.84083
F         -0.87391       -2.30207        1.30669
F         -0.12202       -1.58061       -0.60243
C          0.14850       -1.69961        0.70331
