30
CARBAMAZEPINE.gamout
O          1.13933        1.94640       -3.09197
N          1.08644        0.30411       -1.47755
N          3.06544        0.85611       -2.61504
C          1.81636       -0.54170       -0.59014
C         -0.33641        0.38982       -1.34042
C          1.61989       -1.94416       -0.60599
C         -1.13498       -0.76014       -1.54802
C          0.60146       -2.59881       -1.42473
C         -0.58585       -2.08713       -1.81932
C          2.76226        0.02544        0.27884
C         -0.93632        1.62675       -1.07130
C          2.46270       -2.73344        0.20846
C         -2.53862       -0.60187       -1.51380
C          1.72991        1.10564       -2.43430
C          3.57141       -0.77734        1.08201
C         -2.32367        1.74885       -1.02688
C          3.42577       -2.16833        1.03734
C         -3.12998        0.62925       -1.25640
H          0.77995       -3.65873       -1.62126
H         -1.27975       -2.77458       -2.31011
H          2.85419        1.11107        0.30393
H         -0.29509        2.49122       -0.91406
H          2.32802       -3.81631        0.17823
H         -3.15374       -1.48581       -1.69128
H          4.30948       -0.31555        1.73803
H         -2.77114        2.72274       -0.82725
H          4.05427       -2.80948        1.65509
H         -4.21595        0.71727       -1.23602
H          3.56427        0.10897       -2.15688
H          3.51328        1.40304       -3.33467
