33
CYCLOBARBITAL.gamout
O          0.43354        0.45311        2.39259
O          0.55991        0.48726       -2.39079
O          3.55221       -1.85561        0.06469
N          1.96482       -0.67924        1.19611
N          2.02769       -0.66163       -1.13243
C          0.22514        0.67948       -0.00501
C         -1.21967        0.14889       -0.04228
C         -1.36720       -1.36307       -0.03226
C         -2.78520       -1.81670       -0.41141
C          0.34375        2.22290        0.00835
C         -3.81360       -1.00287        0.37929
C         -3.71391        0.47276       -0.03327
C         -2.28506        0.95934       -0.07207
C          0.86152        0.15739        1.30222
C          0.93034        0.17640       -1.28364
C          1.78325        2.75665        0.05492
C          2.59407       -1.12584        0.04436
H         -0.65603       -1.82229       -0.73687
H         -1.10741       -1.73892        0.97223
H         -2.95161       -1.65215       -1.48655
H         -2.88188       -2.89358       -0.21676
H         -0.19971        2.59721        0.88262
H         -0.14474        2.60797       -0.89315
H         -3.59473       -1.10463        1.45324
H         -4.83754       -1.36450        0.20970
H         -4.29086        1.09036        0.67213
H         -4.15849        0.62565       -1.03166
H         -2.15139        2.03975       -0.13157
H          2.31637        2.43161        0.95899
H          2.36908        2.44070       -0.81918
H          1.77012        3.85302        0.06050
H          2.36794       -1.01068        2.06852
H          2.47678       -0.98028       -1.98703
