47
DECAMETHYLTETRASILOXANE.gamout
C         -1.41530       -1.55680       -1.82300
Si        -0.88450        0.13440       -2.40510
C         -2.38980        1.22720       -2.55440
O          0.12480        0.75360       -1.34360
C         -0.03650       -0.02160       -4.06020
Si         0.95720        2.02310       -0.86640
O          1.83890        1.61240        0.39130
C          2.08050        2.58920       -2.24400
C         -0.21470        3.38880       -0.37190
Si         2.45240        0.40380        1.22360
O          1.41350       -0.06570        2.33480
C          2.85640       -1.01380        0.07580
C          4.02760        0.96530        2.04990
Si         0.00810       -0.74350        2.65260
C         -1.37910        0.32760        2.01030
C         -0.07290       -2.43540        1.86880
C         -0.17070       -0.92480        4.50110
H         -0.52410       -2.21070       -1.73110
H         -2.12140       -1.99540       -2.55740
H         -1.91480       -1.46890       -0.83640
H         -2.08280        2.23300       -2.90640
H         -3.09820        0.78230       -3.28280
H         -2.88130        1.31450       -1.56360
H         -0.73900       -0.46630       -4.79440
H          0.27790        0.98220       -4.41140
H          0.85500       -0.67370       -3.95730
H          2.67170        3.46340       -1.90260
H          1.46980        2.87700       -3.12390
H          2.76630        1.76270       -2.52220
H         -0.83300        3.68150       -1.24440
H         -0.87380        3.03380        0.44610
H          0.36820        4.26560       -0.02310
H          3.28480       -1.85320        0.66080
H          3.59190       -0.67470       -0.68210
H          1.93350       -1.35190       -0.43740
H          3.80510        1.81040        2.73310
H          4.46050        0.12450        2.62980
H          4.75250        1.29460        1.27740
H         -2.35260       -0.14480        2.25380
H         -1.32330        1.32840        2.48500
H         -1.28980        0.43350        0.91190
H         -1.04770       -2.90710        2.10890
H          0.75140       -3.06460        2.26230
H          0.02790       -2.34020        0.76990
H         -0.12190        0.07630        4.97660
H         -1.14680       -1.39780        4.73320
H          0.65080       -1.56020        4.89100
