19
DIALLYLCATION+1.gamout
C         -5.58291        1.91517       -0.27644
C         -4.38143        2.24373        0.19813
C         -3.17361        1.36203        0.00900
C         -0.66706        1.36635       -0.45456
C          0.57492        2.20114       -0.33175
C          1.71675        1.79772        0.23001
N         -1.90815        2.17731       -0.10495
H         -0.65370        0.49305        0.22303
H         -0.83493        0.99408       -1.48110
H         -3.25199        0.77728       -0.91136
H         -3.00259        0.67198        0.84345
H         -6.44239        2.57544       -0.11469
H         -5.75352        0.97458       -0.79129
H         -4.26003        3.18495        0.76061
H          2.60107        2.43333        0.24383
H          1.80097        0.82187        0.70134
H          0.54109        3.17950       -0.81136
H         -1.73298        2.65912        0.78275
H         -2.03761        2.91618       -0.80806
