30
DICLOFENAC.gamout
C         -1.54525       -4.30335        0.71299
C         -0.23099       -4.26313        0.24656
C         -2.42547       -3.28271        0.36306
C         -2.05756       -2.20547       -0.47574
C         -0.73081       -2.23112       -0.96845
C          0.17267       -3.22637       -0.59545
Cl        -0.21213       -1.03793       -2.13915
Cl        -4.08103       -3.35680        0.96918
H         -1.88673       -5.10871        1.36231
H          0.47068       -5.05068        0.52218
H          1.18299       -3.19794       -1.00238
N         -2.99002       -1.24400       -0.85866
H         -3.94315       -1.54343       -0.69019
C         -2.80750        0.15886       -0.71060
C         -1.88483        0.67345        0.21522
C         -1.74425        2.04733        0.39375
C         -2.54994        2.93169       -0.32890
C         -3.61214        1.04376       -1.45863
C         -3.47677        2.42229       -1.23726
C         -4.61543        0.53931       -2.48067
C         -4.43623        1.17311       -3.84909
H         -5.64562        0.71798       -2.14025
H         -4.49232       -0.54214       -2.62455
H         -4.10196        3.11256       -1.80783
H         -2.45714        4.00923       -0.18715
H         -1.01669        2.42475        1.11429
H         -1.28173       -0.01759        0.80376
O         -5.58092        1.73935       -4.30123
O         -3.41862        1.16939       -4.49414
H         -5.40141        2.09766       -5.18532
