24
DIPROPYLCARBAMATE-1.gamout
C         -5.56799        1.42394       -0.16269
C         -4.41831        2.41702       -0.37117
H         -5.44554        0.50546       -0.75395
H         -6.53369        1.86740       -0.43938
H         -5.64958        1.12818        0.90051
C         -3.11062        1.91337        0.25060
H         -4.65248        3.38597        0.06338
H         -4.25334        2.59552       -1.44153
C         -0.69314        1.89360        0.26109
C          0.54985        2.30957       -0.53640
C          1.71465        1.33884       -0.35825
H          1.55872        0.39380       -0.89779
H          1.85722        1.08814        0.70052
H          2.66595        1.76589       -0.71838
H          0.83994        3.31436       -0.20490
H          0.27063        2.38923       -1.59878
N         -1.89054        2.66720       -0.01841
H         -0.43555        1.94436        1.33276
H         -0.91587        0.84883        0.02838
H         -2.93809        0.88384       -0.11964
H         -3.27158        1.80090        1.33082
C         -1.86281        4.04904        0.51085
O         -2.90254        4.71263        0.33747
O         -0.79119        4.40413        1.05269
