39
E-CARYOPHYLLENE.gamout
C         -0.48629       -0.92789        1.72246
C         -0.22171       -1.99494        2.77695
C         -0.88146       -1.07367        0.44321
C         -0.22449        0.46335        2.26041
C         -0.32569       -3.49402        2.46216
C          0.65661       -4.09908        1.43865
C          1.62616       -3.23427        0.56933
C          1.92058       -4.90445        1.93833
C          1.29570       -2.64294       -0.79063
C          2.63935       -4.41365        0.65004
C         -0.11423       -2.73014       -1.34376
C          2.25776       -2.00346       -1.47140
C         -1.21495       -2.31930       -0.33072
C          1.74797       -6.41311        2.08301
C          2.56366       -4.32604        3.20208
H          0.10612       -4.78447        0.77764
H          1.99949       -2.41740        1.20165
H          0.77728       -1.77720        3.19325
H         -0.90767       -1.78823        3.61766
H         -0.94278       -0.14843       -0.14216
H         -0.41188        1.23567        1.50346
H          0.81638        0.56851        2.60995
H         -0.86363        0.67608        3.13398
H         -0.19097       -4.02440        3.41826
H         -1.36084       -3.72789        2.17775
H          3.71212       -4.18093        0.69666
H          2.46382       -5.11191       -0.18056
H         -0.33212       -3.75870       -1.67990
H         -0.15996       -2.09357       -2.23869
H          3.27615       -1.91470       -1.08634
H          2.06621       -1.54773       -2.44469
H         -2.15822       -2.17551       -0.88150
H         -1.40269       -3.14917        0.34872
H          1.30455       -6.85636        1.17902
H          1.09417       -6.66619        2.93326
H          2.71619       -6.90793        2.25752
H          3.54494       -4.79464        3.36973
H          2.72476       -3.24188        3.13760
H          1.95361       -4.52384        4.09577
