31
FLURBIPROFEN.gamout
F         -0.29651       -1.12953        1.52586
O          4.87264        1.82601       -0.93097
O          4.40628        0.09996        0.42441
C          3.19184        2.18704        0.73573
C          1.76872        1.67954        0.55494
C         -0.93948        0.76176        0.20742
C          1.34356        0.46510        1.10677
C          0.83337        2.43026       -0.17037
C          0.03367        0.04042        0.92706
C         -0.47418        1.98111       -0.33187
C          3.56643        2.40032        2.21819
C         -2.34787        0.31706        0.01118
C          4.19843        1.23980        0.08721
C         -2.74596       -1.03205        0.13334
C         -3.34830        1.25740       -0.32143
C         -4.07367       -1.41371       -0.06730
C         -4.67355        0.87382       -0.51957
C         -5.04690       -0.46712       -0.39256
H          3.27023        3.15045        0.21600
H          2.01676       -0.16863        1.68133
H          1.13003        3.37907       -0.61924
H         -1.15878        2.58972       -0.91979
H          2.86625        3.11126        2.67746
H          3.52473        1.45530        2.77621
H          4.58408        2.80698        2.30804
H         -2.00945       -1.79449        0.36602
H         -3.09564        2.31288       -0.40719
H         -4.34338       -2.46658        0.03043
H         -5.41871        1.63092       -0.76905
H         -6.08392       -0.76858       -0.54599
H          5.49035        1.16445       -1.28322
