24
FRUCTOSE.gamout
C          2.48966        2.96310       -0.55187
C          3.28099        1.66222       -0.22822
C          2.24262        0.76362        0.47070
C          0.88834        1.34303       -0.02021
O          1.13299        2.72118       -0.15093
O          2.38891       -0.60980        0.23572
O          4.39821        1.84431        0.61912
C          2.97151        4.20764        0.18123
C         -0.31654        1.21962        0.93186
O          0.59712        0.75079       -1.26956
O         -1.00395        0.00969        0.64751
H          1.92406       -0.80709       -0.59091
H          4.95713        2.54181        0.24998
H         -0.96180        2.09423        0.75208
H          0.03938        1.25020        1.97323
H         -0.28649        0.35648       -1.22829
H         -1.87610        0.01849        1.05405
H          2.33485        0.92498        1.55412
H          3.58759        1.17324       -1.16747
H          3.07789        3.98616        1.25545
H          2.21892        5.00319        0.05893
O          4.22651        4.56809       -0.39165
H          4.59374        5.33273        0.06321
H          2.52589        3.15885       -1.63493
