24
GLUCOSE.gamout
O          2.64174       -3.10409       -1.65967
C          1.59120       -2.33223       -1.09706
C          2.04393       -1.81078        0.26675
C          3.32339       -0.96295        0.24927
C          3.15244        0.40580       -0.44583
C          4.49517        1.12132       -0.68610
C          4.23561        2.47137       -1.35637
O          4.18367        2.61358       -2.55295
O          5.18090        1.31542        0.55098
O          2.31313        1.29332        0.26456
O          3.71215       -0.82583        1.60721
O          0.94502       -1.06940        0.81810
H          2.43867       -3.32190       -2.57504
H          0.67857       -2.93280       -0.94814
H          1.32423       -1.48493       -1.75198
H          2.26152       -2.67677        0.91021
H          4.08067       -1.53719       -0.31328
H          2.73255        0.23217       -1.45541
H          5.08576        0.50479       -1.38152
H          4.09586        3.31953       -0.64707
H          6.13397        1.27902        0.41923
H          1.62483        0.76599        0.70002
H          4.31913       -0.07285        1.67154
H          0.75509       -1.37353        1.71061
