41
INDOMETHACIN.gamout
Cl        -6.66761       -0.23224        0.11511
O          1.59645       -4.28861        0.54831
O         -0.89440        2.95117       -0.81791
O          5.22644        2.43385        0.04343
O          4.73319        0.76243       -1.37444
N          0.12928        1.02805       -0.12621
C          2.28460        0.59663        0.46294
C          1.58295       -0.66486        0.37382
C          0.24993       -0.38672       -0.01595
C          1.40691        1.59821        0.13993
C          3.73984        0.75375        0.83593
C          2.01412       -1.98376        0.56888
C         -0.63060       -1.43581       -0.28464
C          1.69678        3.06532        0.12269
C         -1.00133        1.79238       -0.45601
C          1.11792       -3.02827        0.34478
C         -0.19632       -2.74900       -0.09271
C         -2.37433        1.20941       -0.29880
C          4.60060        1.29164       -0.29786
C         -2.74557        0.37120        0.76450
C         -3.35894        1.63212       -1.20404
C         -4.05981       -0.07692        0.89512
C         -4.67447        1.18678       -1.08894
C         -5.01546        0.32835       -0.04040
C          0.75221       -5.39804        0.32667
H          4.15874       -0.22473        1.10040
H          3.83418        1.40463        1.71571
H          3.03531       -2.21288        0.87393
H         -1.63449       -1.27567       -0.66746
H          2.73579        3.22724        0.42513
H          1.55123        3.50309       -0.87039
H          1.05052        3.61609        0.81860
H         -0.89320       -3.55813       -0.30026
H         -2.01188        0.07478        1.51344
H         -3.08616        2.31097       -2.01234
H         -4.34002       -0.72997        1.72180
H         -5.43104        1.50880       -1.80480
H          0.41436       -5.45116       -0.72160
H         -0.13122       -5.37967        0.98659
H          1.34716       -6.28747        0.55310
H          5.76325        2.72717       -0.71155
