33
KETOPROFEN.gamout
O          1.94812       -2.27209       -0.05843
O         -2.17066        2.52067        0.13574
O          3.98652       -2.10024       -0.97542
C          3.22502       -0.30552        0.47024
C          2.23001        0.73115       -0.04505
C          0.84724        0.59293        0.14811
C         -0.04735        1.57840       -0.29568
C          2.70300        1.87390       -0.70499
C          3.13544       -0.51760        1.99583
C          0.45112        2.72901       -0.93073
C          1.82016        2.86777       -1.14215
C         -1.52460        1.49671       -0.02833
C          3.12137       -1.63441       -0.27418
C         -2.20783        0.15999        0.04276
C         -1.79256       -0.94801       -0.71580
C         -3.35940        0.04950        0.84185
C         -2.51268       -2.14463       -0.66794
C         -4.06486       -1.15129        0.90344
C         -3.64260       -2.25199        0.14825
H          4.23417        0.05000        0.22792
H          0.46409       -0.27944        0.67310
H          3.77490        1.99213       -0.87346
H          3.29552        0.43907        2.51069
H          2.15357       -0.90800        2.29291
H          3.90326       -1.22657        2.33642
H         -0.24760        3.50293       -1.24773
H          2.20806        3.75536       -1.64479
H         -0.92567       -0.86572       -1.37095
H         -3.68986        0.92170        1.40643
H         -2.19208       -2.99508       -1.27223
H         -4.95086       -1.22895        1.53610
H         -4.19851       -3.19041        0.19112
H          1.97319       -3.10840       -0.54995
