37
L-ALANYL-L-TRYPTOPHAN.gamout
O          1.09420        2.29770        1.78700
O          0.81720        3.74050        0.11530
O          3.45340       -0.10470       -0.90420
N          1.46020        0.22810        0.08120
N         -3.35050        1.15390        0.19820
N          2.91790       -2.90210       -0.35400
C         -0.06150        1.41050       -1.48620
C          1.18340        1.50120       -0.57030
C         -1.32930        1.00390       -0.78070
C         -1.72640       -0.26520       -0.39400
C         -2.95550       -0.13110        0.20210
C         -2.36700        1.85410       -0.41110
C         -1.11750       -1.51500       -0.53560
C          1.01500        2.58720        0.46960
C          2.59490       -0.49770       -0.12560
C          2.80480       -1.80460        0.60790
C         -3.64890       -1.22800        0.71210
C         -1.79470       -2.63930       -0.03110
C         -3.05310       -2.49630        0.59230
C          4.05000       -1.72710        1.50000
H          0.11460        0.71280       -2.33280
H         -0.21350        2.41750       -1.93330
H          2.03560        1.80320       -1.21770
H         -2.39620        2.92420       -0.57030
H          0.76370       -0.12960        0.75070
H         -4.24260        1.53830        0.58140
H         -0.15670       -1.62480       -1.02030
H          1.92980       -2.00760        1.26450
H         -4.61700       -1.10970        1.18140
H         -1.34840       -3.62080       -0.12420
H         -3.56540       -3.36930        0.97540
H          3.93680       -0.90580        2.23980
H          4.96120       -1.53980        0.89230
H          4.18150       -2.68070        2.05390
H          2.99990       -3.80970        0.15950
H          3.77080       -2.77950       -0.94770
H          0.99290        2.98370        2.46190
