26
MANNITOL.gamout
O          0.51481        1.14938       -1.44585
O         -0.63713       -1.37221       -1.18221
O          1.95116       -1.32182        0.88642
O         -1.86264        1.15739        1.14075
O          4.34066        0.05139        0.30049
O         -4.34029        0.17267        0.28399
C          0.59960        0.46650       -0.18648
C         -0.61916       -0.45821       -0.09353
C          1.95141       -0.27809       -0.07743
C         -1.93685        0.33026       -0.00834
C          3.07326        0.67067        0.34249
C         -3.15143       -0.59314        0.08966
H          0.51563        1.20975        0.62106
H         -0.53371       -1.05780        0.82326
H          2.19429       -0.69813       -1.07125
H         -2.03451        0.95445       -0.91844
H          2.84279        1.04839        1.35519
H          3.12195        1.53521       -0.33460
H         -3.05103       -1.23425        0.97763
H         -3.22137       -1.23955       -0.79691
H          1.36560        1.14770       -1.89636
H         -0.49942       -0.85692       -1.99004
H          1.44602       -2.07237        0.55278
H         -2.74760        1.50523        1.31360
H          4.30635       -0.73621        0.85850
H         -4.70154        0.44269       -0.56737
