21
METHYL_GALLATE.gamout
O          1.33472       -3.05841        0.02413
O          2.94521        1.34359       -0.01529
O         -2.82865       -0.28571       -0.55265
O          3.37508       -1.28395        0.15646
O         -2.13286        1.84237       -0.58072
C         -0.51016        0.11924       -0.32483
C          0.56837        1.00919       -0.25254
C         -0.27512       -1.26181       -0.23355
C          1.02843       -1.74172       -0.07156
C          1.87276        0.53019       -0.09054
C          2.11081       -0.85143        0.00101
C         -1.87860        0.65554       -0.49645
C         -4.16601        0.12436       -0.71502
H          0.39377        2.08198       -0.32264
H         -1.10479       -1.96587       -0.28817
H          0.59803       -3.66692       -0.02514
H          2.76188        2.28089       -0.07984
H          3.48183       -2.23534        0.21329
H         -4.78562       -0.78173       -0.73806
H         -4.49068        0.76425        0.12249
H         -4.29988        0.67913       -1.65877
