33
MYRICETIN.gamout
O         -0.51963       -0.78017       -0.07042
O          0.42102        2.72019        0.26388
O         -4.62816        1.69828        0.17872
O         -2.30830        2.87091        0.30041
O         -4.61389       -3.06029       -0.31952
O          4.25090       -1.14292       -2.31819
O          4.62502        0.14159        2.29118
O          5.80958       -0.69683       -0.13700
C         -2.53421        0.52887        0.06122
C          0.24694        0.34070        0.05533
C         -1.87806       -0.71443       -0.06725
C          1.70908        0.05679        0.03550
C         -0.30974        1.58293        0.16999
C         -1.76918        1.75952        0.18870
C         -3.96084        0.54114        0.05919
C         -2.56645       -1.91670       -0.19502
C          2.49052        0.25947        1.18693
C          2.30446       -0.43410       -1.13847
C         -3.96507       -1.87324       -0.19389
C         -4.66318       -0.65776       -0.06798
C          3.67503       -0.69523       -1.17300
C          3.85823       -0.02174        1.15525
C          4.45750       -0.47316       -0.02774
H         -2.03155       -2.85948       -0.29268
H          2.04198        0.61209        2.11591
H          1.71187       -0.60909       -2.03633
H         -5.75415       -0.62506       -0.06697
H          1.36161        2.52308        0.14646
H         -3.96564        2.43298        0.25523
H         -5.57038       -2.93285       -0.31240
H          5.19799       -1.28099       -2.17682
H          5.17070       -0.63890        2.45544
H          6.29666       -0.14066        0.48506
