42
NIZATIDINE.gamout
S          0.18231       -2.95685        1.08189
S          4.45043       -0.77254       -0.29756
O         -4.17235        2.44207       -0.77809
O         -5.47865        1.13480       -1.93167
N          4.14066        2.25525        0.37045
N          1.90233       -0.46145       -0.51481
N         -2.05830       -0.93120        0.45682
N         -2.20462        1.37437        0.58239
N         -4.51185        1.29456       -1.17509
C          3.10480        1.71964       -0.49762
C          3.00501        0.22004       -0.42616
C         -1.56464       -3.33077        0.65445
C          2.12740       -1.82201       -0.50552
C          0.96442       -2.76041       -0.58870
C         -2.30768       -2.23528       -0.11829
C          3.44588       -2.18135       -0.38892
C          3.79786        2.15928        1.78186
C          4.55102        3.59910       -0.00433
C         -2.68668        0.21954        0.08589
C         -3.80091        0.17452       -0.77006
C         -1.04080        1.48833        1.43248
H          2.09529        2.12927       -0.28334
H          3.34561        1.99698       -1.53564
H         -2.03611       -3.49149        1.63393
H         -1.62279       -4.27438        0.09551
H         -3.38207       -2.46775       -0.07531
H         -2.02833       -2.25731       -1.18721
H          0.21353       -2.34091       -1.26957
H          1.27426       -3.74436       -0.96159
H          3.86481       -3.18316       -0.34173
H         -1.15527       -0.85079        0.91525
H          4.65639        2.46884        2.39273
H          2.92915        2.79878        2.05008
H          3.55320        1.12196        2.04426
H          3.74018        4.34960        0.11488
H          5.39487        3.91183        0.62571
H          4.88703        3.61260       -1.05019
H         -2.73954        2.19049        0.27249
H         -4.18210       -0.75183       -1.17743
H         -1.16961        0.94479        2.38371
H         -0.88926        2.54725        1.66603
H         -0.12995        1.11063        0.93756
