40
OCTAMETHYLCYCLOTETRASILOXANE.gamout
Si         1.81240        0.44190        0.22020
O          0.71230        1.51850        0.62330
O          1.18760       -1.01890        0.30720
C          2.41490        0.77100       -1.51580
C          3.25670        0.56610        1.39410
Si        -0.62550        2.26290        0.18870
O         -1.63080        1.21470       -0.46200
C         -0.21370        3.58840       -1.05820
C         -1.42590        3.03210        1.68820
Si         0.18530       -2.06560       -0.35060
C          0.98680       -2.82080       -1.85670
C         -0.22070       -3.40170        0.88660
O         -1.15560       -1.32250       -0.77810
Si        -2.25380       -0.24640       -0.36870
C         -2.84320       -0.57370        1.37220
C         -3.70650       -0.37360       -1.53190
H          1.56090        0.69890       -2.22050
H          2.85280        1.78880       -1.56830
H          3.18410        0.01990       -1.78870
H          4.02490       -0.18380        1.11500
H          3.69380        1.58400        1.33520
H          2.90850        0.37190        2.42930
H          0.25910        3.12420       -1.94780
H         -1.14380        4.11020       -1.36330
H          0.48860        4.31690       -0.60390
H         -2.35920        3.54880        1.38420
H         -1.66560        2.23930        2.42610
H         -0.72840        3.76390        2.14470
H          1.22300       -2.02170       -2.58900
H          1.92220       -3.33640       -1.55750
H          0.29140       -3.55160       -2.31800
H          0.71140       -3.92260        1.18700
H         -0.69430       -2.94580        1.78010
H         -0.92100       -4.12930        0.42760
H         -1.98410       -0.49980        2.07040
H         -3.61110        0.17700        1.64970
H         -3.27980       -1.59180        1.42930
H         -4.14230       -1.39180       -1.46840
H         -4.47340        0.37600       -1.24820
H         -3.36610       -0.18050       -2.56990
