20
OHEMIM+1.gamout
C         -3.53461        1.18264        0.67216
N         -2.34587        0.47313        0.19149
H         -4.03141        1.65108       -0.17991
H         -3.23905        1.95693        1.38769
H         -4.22524        0.47651        1.15085
C         -2.18954       -0.06220       -1.06951
C         -0.97910       -0.69602       -1.08623
N         -0.42030       -0.53900        0.16424
C         -1.26277        0.17407        0.91834
C          0.89165       -1.05624        0.57160
C          2.03573       -0.09669        0.22507
H          1.04532       -2.01049        0.05692
H          0.87016       -1.25736        1.64855
O          3.21199       -0.81059        0.50343
H          1.94769        0.82353        0.83091
H          1.97004        0.19252       -0.84114
H          3.99328       -0.25293        0.40287
H         -1.10178        0.45547        1.95539
H         -2.94438        0.04725       -1.84072
H         -0.47859       -1.24412       -1.87340
