29
PHENOBARBITAL.gamout
O          0.45288       -0.54042        2.37753
O          0.44817       -0.40767       -2.41068
O          3.58170        1.76893        0.04229
N          1.98804        0.59591        1.17893
N          1.98577        0.66054       -1.15417
C          0.18138       -0.66274       -0.02139
C          0.24720       -2.21093       -0.06422
C         -1.25199       -0.09270       -0.00326
C          0.86361       -0.21116        1.28737
C          0.86102       -0.13937       -1.30472
C          1.66770       -2.78842       -0.08075
C         -1.42518        1.30006        0.03641
C         -2.38805       -0.90876       -0.02402
C          2.59693        1.06452        0.02381
C         -2.69996        1.86535        0.05540
C         -3.66787       -0.34392       -0.00513
C         -3.82999        1.04171        0.03468
H         -0.28635       -2.54610       -0.96260
H         -0.28469       -2.59515        0.81535
H          2.23653       -2.46070       -0.96273
H          2.23607       -2.50839        0.81773
H          1.62128       -3.88470       -0.11056
H          2.42455        0.88336        2.05109
H          2.42066        0.99578       -2.00993
H         -0.55573        1.96111        0.05328
H         -2.29330       -1.99194       -0.05482
H         -2.81013        2.95042        0.08645
H         -4.54228       -0.99665       -0.02169
H         -4.82943        1.47942        0.04944
