36
PIROXICAM.gamout
S          2.12815       -1.79430       -0.46595
O          1.86672       -2.62064        0.72689
O          2.61488       -2.46565       -1.68656
O          1.12287        2.48625        0.42254
O         -1.27559        2.01380       -0.71101
N          0.70439       -0.95438       -0.89340
N         -1.93056       -0.09500       -0.10397
N         -3.90834       -1.09595        0.43731
C          3.23853       -0.46715       -0.05455
C          2.79137        0.85013        0.15356
C          0.42556        0.35832       -0.45655
C          1.38604        1.21752        0.02228
C          4.58710       -0.82193        0.06488
C         -0.13463       -1.69751       -1.85296
C          3.75889        1.81728        0.50633
C         -0.99565        0.83849       -0.46534
C          5.52059        0.15283        0.40896
C          5.09963        1.47184        0.62925
C         -3.32807        0.02573       -0.00283
C         -4.04871        1.18672       -0.33123
C         -5.43378        1.14302       -0.17974
C         -5.23359       -1.11744        0.57703
C         -6.04982       -0.02226        0.28267
H          4.89142       -1.85375       -0.10833
H         -0.95578       -1.05932       -2.18426
H          0.46357       -1.96886       -2.73138
H         -0.53727       -2.61683       -1.40567
H          3.42886        2.84014        0.67571
H          6.57314       -0.11552        0.50647
H          5.82854        2.23735        0.89968
H         -1.60682       -1.01538        0.17548
H          0.16935        2.66490        0.34595
H         -3.52980        2.07149       -0.68799
H         -6.02805        2.02528       -0.42497
H         -5.66422       -2.05469        0.94058
H         -7.13022       -0.08545        0.41189
