33
TENOXICAM.gamout
S         -4.89744        1.82091        0.41143
S         -5.17766       -2.35340        1.17730
O         -5.79719        2.51940       -0.51577
O         -4.60531        2.40083        1.72563
O         -2.16338       -1.49753        1.26909
O         -0.76653        2.14545       -0.01128
N         -3.43661        1.50424       -0.40880
N         -0.18100       -0.06654        0.03272
N          1.78844       -1.21688       -0.06449
C         -5.41502        0.14534        0.61455
C         -2.54244        0.57870        0.14647
C         -4.43642       -0.80343        0.85040
C         -3.02141       -0.55460        0.76507
C         -6.74898       -0.34484        0.67198
C         -3.11937        2.28561       -1.61045
C         -1.08097        0.96598        0.06083
C         -6.77355       -1.67640        0.99621
C          1.21740       -0.00670       -0.06288
C          1.95913        1.18656       -0.14376
C          3.34575        1.07719       -0.22947
C          3.11517       -1.30218       -0.14853
C          3.94768       -0.18392       -0.23734
H         -7.62942        0.27108        0.49825
H         -2.55984        1.64924       -2.30664
H         -4.05958        2.58925       -2.08164
H         -2.52317        3.17380       -1.37239
H         -7.64115       -2.31746        1.13161
H         -0.52640       -1.01158        0.15878
H         -2.48754       -1.85515        2.10617
H          1.45363        2.14707       -0.13931
H          3.95260        1.98288       -0.28347
H          3.53436       -2.31227       -0.16430
H          5.03014       -0.30145       -0.29477
