36
TRANS-2,2,4,6,6-PENTAMETHYL-3-HEPTENE.gamout
C          2.49329       -0.18157        0.04951
C          1.35956        0.26597       -0.93251
C         -2.46000       -0.28997       -0.01494
C         -0.00634        0.58793       -0.34865
C         -0.99561       -0.31962       -0.46953
C          3.75013       -0.44939       -0.80226
C          2.82685        0.89820        1.09548
C          2.08167       -1.47967        0.76620
C         -3.09892       -1.63909       -0.40604
C         -3.24710        0.83578       -0.72278
C         -2.57386       -0.12750        1.51666
C         -0.16662        1.95385        0.29169
H          1.25179       -0.54112       -1.67148
H          1.71872        1.14977       -1.48773
H         -0.71405       -1.24610       -0.97829
H          4.07206        0.46162       -1.32905
H          4.58735       -0.78562       -0.17290
H          3.56138       -1.22854       -1.55562
H          1.98733        1.08231        1.77791
H          3.68643        0.58309        1.70479
H          3.09418        1.85061        0.61420
H          2.89220       -1.83713        1.41803
H          1.85828       -2.27770        0.04242
H          1.18687       -1.33015        1.38486
H         -3.05079       -1.79777       -1.49365
H         -4.15507       -1.67653       -0.10397
H         -2.57774       -2.47742        0.08009
H         -4.31541        0.77864       -0.46370
H         -2.89182        1.83435       -0.44125
H         -3.15805        0.74424       -1.81468
H         -3.62504       -0.20067        1.83504
H         -2.19066        0.84068        1.86146
H         -2.00896       -0.91590        2.03436
H         -0.98220        2.52155       -0.17535
H         -0.41326        1.87929        1.36033
H          0.74594        2.55301        0.20522
