101
TRIHEXYL-(TETRADECYL)-PHOSPHONIUM+1.gamout
P          0.99980        0.07940        0.06080
C          0.38980       -0.14350        1.77170
C          0.38980        1.67250       -0.60170
C          0.38980       -1.29080       -0.98770
C          2.82980        0.07940        0.06080
C          0.89650       -1.46670        2.32190
C          0.89650        2.81060        0.26920
C         -1.13020       -1.29080       -0.98770
C          3.33650        1.21750        0.93160
C          0.38980       -1.65180        3.74290
C          0.38980        4.13390       -0.28100
C         -1.63690       -2.42890       -1.85860
C          4.85650        1.21750        0.93160
C          0.89650       -2.97510        4.29310
C          0.89650        5.27200        0.58990
C         -3.15690       -2.42890       -1.85860
C          5.36310        2.35560        1.80250
C          0.38980       -3.16020        5.71420
C          0.38980        6.59520        0.03960
C         -3.66350       -3.56700       -2.72940
C          6.88310        2.35560        1.80250
C          0.89650       -4.48340        6.26440
C          0.38980       -4.66850        7.68550
C          0.89640        7.73330        0.91050
C         -5.18350       -3.56700       -2.72940
C          7.38980        3.49380        2.67330
C          0.89650       -5.99180        8.23570
C          0.38980       -6.17690        9.65670
C          0.89650       -7.50010       10.20690
C          0.38980       -7.68530       11.62800
C          0.89650       -9.00850       12.17820
C          0.38980       -9.19360       13.59930
C          0.89650      -10.51690       14.14950
H         -0.68020       -0.14350        1.77160
H          0.74650        0.65770        2.38470
H         -0.68020        1.67250       -0.60170
H          0.74650        1.80280       -1.60200
H          0.74650       -2.22230       -0.60040
H          0.74650       -1.16050       -1.98800
H          3.18650        0.20970       -0.93960
H          3.18650       -0.85210        0.44810
H          1.96650       -1.46670        2.32190
H          0.53980       -2.26790        1.70880
H          1.96650        2.81060        0.26920
H          0.53980        2.68030        1.26960
H         -1.48690       -0.35930       -1.37500
H         -1.48690       -1.42110        0.01270
H          2.97980        1.08720        1.93200
H          2.97980        2.14900        0.54430
H         -0.68020       -1.65180        3.74290
H          0.74650       -0.85060        4.35600
H         -0.68020        4.13390       -0.28100
H          0.74650        4.26420       -1.28140
H         -1.28020       -3.36040       -1.47120
H         -1.28020       -2.29860       -2.85890
H          5.21310        1.34790       -0.06870
H          5.21310        0.28600        1.31890
H          1.96650       -2.97510        4.29310
H          0.53980       -3.77620        3.68010
H          1.96650        5.27200        0.58990
H          0.53980        5.14170        1.59020
H         -3.51350       -1.49740       -2.24590
H         -3.51350       -2.55920       -0.85820
H          5.00640        2.22530        2.80280
H          5.00640        3.28710        1.41520
H         -0.68020       -3.16020        5.71420
H          0.74650       -2.35900        6.32720
H         -0.68020        6.59520        0.03960
H          0.74650        6.72550       -0.96070
H         -3.30690       -4.49850       -2.34210
H         -3.30690       -3.43670       -3.72980
H          7.23980        2.48600        0.80210
H          7.23980        1.42420        2.18980
H          1.96650       -4.48340        6.26440
H          0.53980       -5.28460        5.65140
H         -0.68020       -4.66850        7.68550
H          0.74640       -3.86740        8.29850
H          0.53980        7.60300        1.91090
H          0.53980        8.66480        0.52320
H          1.96640        7.73330        0.91050
H         -5.54020       -3.69740       -1.72910
H         -5.54020       -4.36820       -3.34240
H         -5.54020       -2.63560       -3.11670
H          7.03310        4.42520        2.28600
H          8.45980        3.49380        2.67330
H          7.03310        3.36340        3.67370
H          1.96650       -5.99180        8.23570
H          0.53980       -6.79300        7.62260
H         -0.68020       -6.17690        9.65670
H          0.74640       -5.37570       10.26980
H          1.96650       -7.50010       10.20690
H          0.53980       -8.30130        9.59390
H         -0.68020       -7.68530       11.62800
H          0.74640       -6.88410       12.24100
H          1.96650       -9.00850       12.17820
H          0.53980       -9.80970       11.56520
H         -0.68020       -9.19360       13.59930
H          0.74640       -8.39250       14.21230
H          0.53980      -11.31800       13.53640
H          0.53980      -10.64720       15.14980
H          1.96650      -10.51690       14.14950
