
 OpenBabel03122415283D

 66 65  0  0  0  0  0  0  0  0999 V2000
    6.9920   20.9404   22.2300 C   0  0  0  0  0  0  0  0  0  0  0  0
    5.8953   21.8256   22.0470 O   0  0  0  0  0  0  0  0  0  0  0  0
    4.6014   21.2597   22.0405 C   0  0  0  0  0  0  0  0  0  0  0  0
    4.5671   20.3483   22.6868 H   0  0  0  0  0  0  0  0  0  0  0  0
    4.2845   20.9608   21.0082 H   0  0  0  0  0  0  0  0  0  0  0  0
    3.6355   22.2964   22.5969 C   0  0  0  0  0  0  0  0  0  0  0  0
    3.9687   22.5132   23.9519 O   0  0  0  0  0  0  0  0  0  0  0  0
    3.5071   23.7286   24.4999 C   0  0  0  0  0  0  0  0  0  0  0  0
    3.7337   23.2432   22.0082 H   0  0  0  0  0  0  0  0  0  0  0  0
    2.5799   21.9344   22.4817 H   0  0  0  0  0  0  0  0  0  0  0  0
    2.3994   23.7060   24.6769 H   0  0  0  0  0  0  0  0  0  0  0  0
    3.7239   24.5813   23.8080 H   0  0  0  0  0  0  0  0  0  0  0  0
    4.2144   23.9739   25.8225 C   0  0  0  0  0  0  0  0  0  0  0  0
    5.5900   24.1759   25.5844 O   0  0  0  0  0  0  0  0  0  0  0  0
    6.3142   24.5271   26.7502 C   0  0  0  0  0  0  0  0  0  0  0  0
    3.7559   24.8736   26.3100 H   0  0  0  0  0  0  0  0  0  0  0  0
    4.0494   23.1002   26.5055 H   0  0  0  0  0  0  0  0  0  0  0  0
    6.2481   23.7138   27.5194 H   0  0  0  0  0  0  0  0  0  0  0  0
    5.8891   25.4596   27.2033 H   0  0  0  0  0  0  0  0  0  0  0  0
    7.7740   24.7513   26.3951 C   0  0  0  0  0  0  0  0  0  0  0  0
    7.8785   25.9112   25.5909 O   0  0  0  0  0  0  0  0  0  0  0  0
    9.1217   26.0443   24.9367 C   0  0  0  0  0  0  0  0  0  0  0  0
    8.3614   24.8586   27.3457 H   0  0  0  0  0  0  0  0  0  0  0  0
    8.1532   23.8547   25.8457 H   0  0  0  0  0  0  0  0  0  0  0  0
    9.4481   25.0567   24.5255 H   0  0  0  0  0  0  0  0  0  0  0  0
    9.9301   26.3831   25.6399 H   0  0  0  0  0  0  0  0  0  0  0  0
    8.9988   27.0749   23.8090 C   0  0  0  0  0  0  0  0  0  0  0  0
    7.9512   26.8447   22.8920 O   0  0  0  0  0  0  0  0  0  0  0  0
    7.8984   25.5306   22.3629 C   0  0  0  0  0  0  0  0  0  0  0  0
    8.7960   28.0792   24.2410 H   0  0  0  0  0  0  0  0  0  0  0  0
    9.9950   27.1180   23.2898 H   0  0  0  0  0  0  0  0  0  0  0  0
    7.5716   24.8008   23.1413 H   0  0  0  0  0  0  0  0  0  0  0  0
    8.8918   25.1966   21.9735 H   0  0  0  0  0  0  0  0  0  0  0  0
    6.9031   25.4850   21.2189 C   0  0  0  0  0  0  0  0  0  0  0  0
    7.4872   26.0377   20.0415 O   0  0  0  0  0  0  0  0  0  0  0  0
    6.5531   26.2373   19.0001 C   0  0  0  0  0  0  0  0  0  0  0  0
    6.5932   24.4255   21.0410 H   0  0  0  0  0  0  0  0  0  0  0  0
    5.9946   26.0709   21.5084 H   0  0  0  0  0  0  0  0  0  0  0  0
    5.7627   26.9674   19.3140 H   0  0  0  0  0  0  0  0  0  0  0  0
    6.0397   25.2787   18.7287 H   0  0  0  0  0  0  0  0  0  0  0  0
    7.2781   26.7844   17.7817 C   0  0  0  0  0  0  0  0  0  0  0  0
    8.1108   25.7713   17.2606 O   0  0  0  0  0  0  0  0  0  0  0  0
    9.1547   26.2037   16.4146 C   0  0  0  0  0  0  0  0  0  0  0  0
    6.5245   27.1278   17.0252 H   0  0  0  0  0  0  0  0  0  0  0  0
    7.8819   27.6747   18.0906 H   0  0  0  0  0  0  0  0  0  0  0  0
    9.5984   27.1594   16.7910 H   0  0  0  0  0  0  0  0  0  0  0  0
    8.7949   26.3839   15.3673 H   0  0  0  0  0  0  0  0  0  0  0  0
   10.2296   25.1248   16.4168 C   0  0  0  0  0  0  0  0  0  0  0  0
   10.7789   25.0656   17.7155 O   0  0  0  0  0  0  0  0  0  0  0  0
   11.1604   23.7973   18.2191 C   0  0  0  0  0  0  0  0  0  0  0  0
    9.7639   24.1482   16.1356 H   0  0  0  0  0  0  0  0  0  0  0  0
   11.0079   25.3665   15.6475 H   0  0  0  0  0  0  0  0  0  0  0  0
    8.1060   21.7573   22.8772 C   0  0  0  0  0  0  0  0  0  0  0  0
    7.3324   20.5034   21.2565 H   0  0  0  0  0  0  0  0  0  0  0  0
    6.6948   20.1032   22.9098 H   0  0  0  0  0  0  0  0  0  0  0  0
    7.7031   22.2774   24.1353 O   0  0  0  0  0  0  0  0  0  0  0  0
    8.4254   22.5591   22.1653 H   0  0  0  0  0  0  0  0  0  0  0  0
    8.9861   21.1019   23.0604 H   0  0  0  0  0  0  0  0  0  0  0  0
    6.8093   22.6873   24.0278 H   0  0  0  0  0  0  0  0  0  0  0  0
   10.8436   23.7766   19.7130 C   0  0  0  0  0  0  0  0  0  0  0  0
   12.2520   23.6051   18.0458 H   0  0  0  0  0  0  0  0  0  0  0  0
   10.5818   22.9840   17.7157 H   0  0  0  0  0  0  0  0  0  0  0  0
    9.4536   23.7981   19.9727 O   0  0  0  0  0  0  0  0  0  0  0  0
   11.3787   24.6302   20.2028 H   0  0  0  0  0  0  0  0  0  0  0  0
   11.2404   22.8360   20.1560 H   0  0  0  0  0  0  0  0  0  0  0  0
    9.0649   24.6403   19.6204 H   0  0  0  0  0  0  0  0  0  0  0  0
  1 53  1  0  0  0  0
  1 55  1  0  0  0  0
  2  1  1  0  0  0  0
  3  2  1  0  0  0  0
  3  6  1  0  0  0  0
  3  4  1  0  0  0  0
  5  3  1  0  0  0  0
  6  7  1  0  0  0  0
  7  8  1  0  0  0  0
  8 11  1  0  0  0  0
  8 13  1  0  0  0  0
  9  6  1  0  0  0  0
 10  6  1  0  0  0  0
 12  8  1  0  0  0  0
 13 16  1  0  0  0  0
 13 17  1  0  0  0  0
 14 13  1  0  0  0  0
 14 15  1  0  0  0  0
 15 19  1  0  0  0  0
 15 18  1  0  0  0  0
 20 15  1  0  0  0  0
 20 23  1  0  0  0  0
 21 20  1  0  0  0  0
 22 21  1  0  0  0  0
 22 26  1  0  0  0  0
 24 20  1  0  0  0  0
 25 22  1  0  0  0  0
 27 30  1  0  0  0  0
 27 22  1  0  0  0  0
 28 27  1  0  0  0  0
 29 28  1  0  0  0  0
 29 32  1  0  0  0  0
 31 27  1  0  0  0  0
 33 29  1  0  0  0  0
 34 38  1  0  0  0  0
 34 29  1  0  0  0  0
 35 34  1  0  0  0  0
 36 39  1  0  0  0  0
 36 35  1  0  0  0  0
 37 34  1  0  0  0  0
 40 36  1  0  0  0  0
 41 45  1  0  0  0  0
 41 36  1  0  0  0  0
 42 41  1  0  0  0  0
 43 48  1  0  0  0  0
 43 46  1  0  0  0  0
 43 42  1  0  0  0  0
 44 41  1  0  0  0  0
 47 43  1  0  0  0  0
 48 49  1  0  0  0  0
 49 50  1  0  0  0  0
 50 60  1  0  0  0  0
 51 48  1  0  0  0  0
 52 48  1  0  0  0  0
 53 58  1  0  0  0  0
 53 56  1  0  0  0  0
 54  1  1  0  0  0  0
 57 53  1  0  0  0  0
 59 56  1  0  0  0  0
 60 63  1  0  0  0  0
 60 65  1  0  0  0  0
 60 64  1  0  0  0  0
 61 50  1  0  0  0  0
 62 50  1  0  0  0  0
 66 63  1  0  0  0  0
M  END
