
 OpenBabel03122415283D

 66 65  0  0  0  0  0  0  0  0999 V2000
   16.2224   11.4406    7.3030 C   0  0  0  0  0  0  0  0  0  0  0  0
   15.0711   11.2428    8.1072 O   0  0  0  0  0  0  0  0  0  0  0  0
   14.1508   10.3136    7.5759 C   0  0  0  0  0  0  0  0  0  0  0  0
   14.6285    9.3068    7.4367 H   0  0  0  0  0  0  0  0  0  0  0  0
   13.8043   10.6456    6.5631 H   0  0  0  0  0  0  0  0  0  0  0  0
   12.9671   10.1515    8.5326 C   0  0  0  0  0  0  0  0  0  0  0  0
   12.2321   11.3224    8.8020 O   0  0  0  0  0  0  0  0  0  0  0  0
   11.4792   11.8264    7.7159 C   0  0  0  0  0  0  0  0  0  0  0  0
   12.3052    9.3437    8.1168 H   0  0  0  0  0  0  0  0  0  0  0  0
   13.3513    9.8055    9.5172 H   0  0  0  0  0  0  0  0  0  0  0  0
   10.8599   11.0111    7.2524 H   0  0  0  0  0  0  0  0  0  0  0  0
   12.1425   12.2300    6.9087 H   0  0  0  0  0  0  0  0  0  0  0  0
   10.5420   12.9291    8.2106 C   0  0  0  0  0  0  0  0  0  0  0  0
   11.2234   14.0863    8.6684 O   0  0  0  0  0  0  0  0  0  0  0  0
   11.5265   15.0417    7.6668 C   0  0  0  0  0  0  0  0  0  0  0  0
    9.8156   13.1658    7.3954 H   0  0  0  0  0  0  0  0  0  0  0  0
    9.9724   12.5365    9.0825 H   0  0  0  0  0  0  0  0  0  0  0  0
   11.8391   14.5550    6.7082 H   0  0  0  0  0  0  0  0  0  0  0  0
   12.3961   15.6234    8.0457 H   0  0  0  0  0  0  0  0  0  0  0  0
   10.3892   16.0151    7.3605 C   0  0  0  0  0  0  0  0  0  0  0  0
   10.1858   16.8522    8.4911 O   0  0  0  0  0  0  0  0  0  0  0  0
    9.0331   17.6626    8.4527 C   0  0  0  0  0  0  0  0  0  0  0  0
   10.6598   16.6157    6.4582 H   0  0  0  0  0  0  0  0  0  0  0  0
    9.4512   15.4563    7.1097 H   0  0  0  0  0  0  0  0  0  0  0  0
    8.8193   17.9476    9.5079 H   0  0  0  0  0  0  0  0  0  0  0  0
    8.1511   17.0928    8.0620 H   0  0  0  0  0  0  0  0  0  0  0  0
    9.1808   18.9524    7.6441 C   0  0  0  0  0  0  0  0  0  0  0  0
    9.2007   18.6599    6.2599 O   0  0  0  0  0  0  0  0  0  0  0  0
    9.3030   19.7990    5.4345 C   0  0  0  0  0  0  0  0  0  0  0  0
    8.3218   19.6338    7.8877 H   0  0  0  0  0  0  0  0  0  0  0  0
   10.1228   19.4759    7.9552 H   0  0  0  0  0  0  0  0  0  0  0  0
   10.2620   20.3515    5.6208 H   0  0  0  0  0  0  0  0  0  0  0  0
    8.4618   20.5123    5.6337 H   0  0  0  0  0  0  0  0  0  0  0  0
    9.2589   19.3620    3.9787 C   0  0  0  0  0  0  0  0  0  0  0  0
    7.9631   18.8956    3.6694 O   0  0  0  0  0  0  0  0  0  0  0  0
    7.8914   18.1493    2.4772 C   0  0  0  0  0  0  0  0  0  0  0  0
    9.5472   20.2270    3.3234 H   0  0  0  0  0  0  0  0  0  0  0  0
   10.0200   18.5555    3.8221 H   0  0  0  0  0  0  0  0  0  0  0  0
    8.6285   17.3048    2.4918 H   0  0  0  0  0  0  0  0  0  0  0  0
    8.1246   18.7816    1.5788 H   0  0  0  0  0  0  0  0  0  0  0  0
    6.4897   17.5827    2.3199 C   0  0  0  0  0  0  0  0  0  0  0  0
    6.2457   16.6443    3.3457 O   0  0  0  0  0  0  0  0  0  0  0  0
    4.9658   16.0569    3.2828 C   0  0  0  0  0  0  0  0  0  0  0  0
    5.7435   18.4188    2.3620 H   0  0  0  0  0  0  0  0  0  0  0  0
    6.4066   17.1078    1.3067 H   0  0  0  0  0  0  0  0  0  0  0  0
    4.8642   15.4067    2.3746 H   0  0  0  0  0  0  0  0  0  0  0  0
    4.1630   16.8386    3.2263 H   0  0  0  0  0  0  0  0  0  0  0  0
    4.7375   15.2284    4.5366 C   0  0  0  0  0  0  0  0  0  0  0  0
    5.6567   14.1545    4.5595 O   0  0  0  0  0  0  0  0  0  0  0  0
    5.6824   13.4109    5.7679 C   0  0  0  0  0  0  0  0  0  0  0  0
    4.8737   15.8800    5.4361 H   0  0  0  0  0  0  0  0  0  0  0  0
    3.6811   14.8536    4.5398 H   0  0  0  0  0  0  0  0  0  0  0  0
   17.1364   12.3894    8.0738 C   0  0  0  0  0  0  0  0  0  0  0  0
   15.9476   11.8694    6.3034 H   0  0  0  0  0  0  0  0  0  0  0  0
   16.7459   10.4649    7.1280 H   0  0  0  0  0  0  0  0  0  0  0  0
   17.4657   11.8598    9.3435 O   0  0  0  0  0  0  0  0  0  0  0  0
   16.6336   13.3883    8.1543 H   0  0  0  0  0  0  0  0  0  0  0  0
   18.0867   12.5322    7.5143 H   0  0  0  0  0  0  0  0  0  0  0  0
   16.6037   11.5994    9.7423 H   0  0  0  0  0  0  0  0  0  0  0  0
    6.9851   12.6177    5.7396 C   0  0  0  0  0  0  0  0  0  0  0  0
    4.7928   12.7343    5.8531 H   0  0  0  0  0  0  0  0  0  0  0  0
    5.6793   14.1025    6.6483 H   0  0  0  0  0  0  0  0  0  0  0  0
    8.0933   13.4905    5.5975 O   0  0  0  0  0  0  0  0  0  0  0  0
    6.9403   11.8731    4.9030 H   0  0  0  0  0  0  0  0  0  0  0  0
    7.1140   12.0555    6.6895 H   0  0  0  0  0  0  0  0  0  0  0  0
    7.8188   14.1471    4.9123 H   0  0  0  0  0  0  0  0  0  0  0  0
  1 53  1  0  0  0  0
  1  2  1  0  0  0  0
  3  2  1  0  0  0  0
  3  6  1  0  0  0  0
  4  3  1  0  0  0  0
  5  3  1  0  0  0  0
  6  7  1  0  0  0  0
  6 10  1  0  0  0  0
  8 13  1  0  0  0  0
  8  7  1  0  0  0  0
  9  6  1  0  0  0  0
 11  8  1  0  0  0  0
 12  8  1  0  0  0  0
 13 14  1  0  0  0  0
 13 17  1  0  0  0  0
 15 19  1  0  0  0  0
 15 14  1  0  0  0  0
 16 13  1  0  0  0  0
 18 15  1  0  0  0  0
 20 15  1  0  0  0  0
 20 21  1  0  0  0  0
 22 21  1  0  0  0  0
 22 25  1  0  0  0  0
 23 20  1  0  0  0  0
 24 20  1  0  0  0  0
 26 22  1  0  0  0  0
 27 30  1  0  0  0  0
 27 31  1  0  0  0  0
 27 22  1  0  0  0  0
 28 27  1  0  0  0  0
 29 32  1  0  0  0  0
 29 33  1  0  0  0  0
 29 28  1  0  0  0  0
 34 29  1  0  0  0  0
 35 34  1  0  0  0  0
 36 39  1  0  0  0  0
 36 35  1  0  0  0  0
 37 34  1  0  0  0  0
 38 34  1  0  0  0  0
 40 36  1  0  0  0  0
 41 44  1  0  0  0  0
 41 36  1  0  0  0  0
 41 42  1  0  0  0  0
 43 42  1  0  0  0  0
 43 48  1  0  0  0  0
 45 41  1  0  0  0  0
 46 43  1  0  0  0  0
 47 43  1  0  0  0  0
 48 52  1  0  0  0  0
 48 49  1  0  0  0  0
 48 51  1  0  0  0  0
 49 50  1  0  0  0  0
 50 61  1  0  0  0  0
 50 62  1  0  0  0  0
 53 57  1  0  0  0  0
 53 56  1  0  0  0  0
 54  1  1  0  0  0  0
 55  1  1  0  0  0  0
 56 59  1  0  0  0  0
 58 53  1  0  0  0  0
 60 50  1  0  0  0  0
 60 65  1  0  0  0  0
 63 60  1  0  0  0  0
 64 60  1  0  0  0  0
 66 63  1  0  0  0  0
M  END
