
 OpenBabel03122415273D

 66 65  0  0  0  0  0  0  0  0999 V2000
   32.9032   30.5335   14.8771 C   0  0  0  0  0  0  0  0  0  0  0  0
   33.0401   31.7903   14.2540 O   0  0  0  0  0  0  0  0  0  0  0  0
   34.3770   32.1276   13.9490 C   0  0  0  0  0  0  0  0  0  0  0  0
   34.8107   31.4063   13.2067 H   0  0  0  0  0  0  0  0  0  0  0  0
   35.0170   32.0915   14.8677 H   0  0  0  0  0  0  0  0  0  0  0  0
   34.4326   33.5289   13.3636 C   0  0  0  0  0  0  0  0  0  0  0  0
   34.1626   34.4743   14.3738 O   0  0  0  0  0  0  0  0  0  0  0  0
   34.1572   35.8052   13.9058 C   0  0  0  0  0  0  0  0  0  0  0  0
   35.4511   33.6940   12.9216 H   0  0  0  0  0  0  0  0  0  0  0  0
   33.6889   33.6069   12.5275 H   0  0  0  0  0  0  0  0  0  0  0  0
   33.3465   35.9583   13.1449 H   0  0  0  0  0  0  0  0  0  0  0  0
   35.1320   36.0639   13.4156 H   0  0  0  0  0  0  0  0  0  0  0  0
   33.9213   36.7536   15.0693 C   0  0  0  0  0  0  0  0  0  0  0  0
   35.0654   36.7878   15.8923 O   0  0  0  0  0  0  0  0  0  0  0  0
   34.8972   37.5800   17.0461 C   0  0  0  0  0  0  0  0  0  0  0  0
   33.6890   37.7739   14.6634 H   0  0  0  0  0  0  0  0  0  0  0  0
   33.0216   36.4086   15.6432 H   0  0  0  0  0  0  0  0  0  0  0  0
   34.0849   37.1644   17.7002 H   0  0  0  0  0  0  0  0  0  0  0  0
   34.6056   38.6292   16.7777 H   0  0  0  0  0  0  0  0  0  0  0  0
   36.1930   37.6151   17.8396 C   0  0  0  0  0  0  0  0  0  0  0  0
   37.1431   38.4163   17.1722 O   0  0  0  0  0  0  0  0  0  0  0  0
   38.3884   38.4646   17.8338 C   0  0  0  0  0  0  0  0  0  0  0  0
   35.9767   38.0225   18.8641 H   0  0  0  0  0  0  0  0  0  0  0  0
   36.5688   36.5676   17.9686 H   0  0  0  0  0  0  0  0  0  0  0  0
   38.8211   37.4377   17.9525 H   0  0  0  0  0  0  0  0  0  0  0  0
   38.2772   38.9030   18.8622 H   0  0  0  0  0  0  0  0  0  0  0  0
   39.3616   39.3229   17.0425 C   0  0  0  0  0  0  0  0  0  0  0  0
   39.7608   38.6399   15.8760 O   0  0  0  0  0  0  0  0  0  0  0  0
   40.6154   39.4005   15.0514 C   0  0  0  0  0  0  0  0  0  0  0  0
   38.8668   40.2976   16.7909 H   0  0  0  0  0  0  0  0  0  0  0  0
   40.2470   39.5554   17.6924 H   0  0  0  0  0  0  0  0  0  0  0  0
   41.5216   39.7431   15.6161 H   0  0  0  0  0  0  0  0  0  0  0  0
   40.0915   40.3169   14.6700 H   0  0  0  0  0  0  0  0  0  0  0  0
   41.0614   38.5622   13.8652 C   0  0  0  0  0  0  0  0  0  0  0  0
   41.9730   37.5755   14.2971 O   0  0  0  0  0  0  0  0  0  0  0  0
   42.3844   36.7088   13.2637 C   0  0  0  0  0  0  0  0  0  0  0  0
   40.1595   38.0971   13.3888 H   0  0  0  0  0  0  0  0  0  0  0  0
   41.5348   39.2369   13.1031 H   0  0  0  0  0  0  0  0  0  0  0  0
   42.8349   37.2815   12.4112 H   0  0  0  0  0  0  0  0  0  0  0  0
   41.5126   36.1313   12.8558 H   0  0  0  0  0  0  0  0  0  0  0  0
   43.4149   35.7283   13.7980 C   0  0  0  0  0  0  0  0  0  0  0  0
   44.6319   36.4014   14.0366 O   0  0  0  0  0  0  0  0  0  0  0  0
   45.6255   35.5750   14.5985 C   0  0  0  0  0  0  0  0  0  0  0  0
   43.0208   35.2625   14.7385 H   0  0  0  0  0  0  0  0  0  0  0  0
   43.5550   34.9057   13.0477 H   0  0  0  0  0  0  0  0  0  0  0  0
   45.8165   34.6771   13.9537 H   0  0  0  0  0  0  0  0  0  0  0  0
   45.3116   35.2003   15.6089 H   0  0  0  0  0  0  0  0  0  0  0  0
   46.9176   36.3609   14.7483 C   0  0  0  0  0  0  0  0  0  0  0  0
   47.4888   36.5852   13.4768 O   0  0  0  0  0  0  0  0  0  0  0  0
   48.6509   37.3821   13.5110 C   0  0  0  0  0  0  0  0  0  0  0  0
   46.6970   37.3307   15.2642 H   0  0  0  0  0  0  0  0  0  0  0  0
   47.6208   35.7819   15.4044 H   0  0  0  0  0  0  0  0  0  0  0  0
   31.4177   30.2775   15.1538 C   0  0  0  0  0  0  0  0  0  0  0  0
   33.4751   30.5042   15.8452 H   0  0  0  0  0  0  0  0  0  0  0  0
   33.3088   29.7069   14.2365 H   0  0  0  0  0  0  0  0  0  0  0  0
   31.2023   29.0197   15.7737 O   0  0  0  0  0  0  0  0  0  0  0  0
   30.8639   30.2530   14.1915 H   0  0  0  0  0  0  0  0  0  0  0  0
   31.0063   31.1311   15.7495 H   0  0  0  0  0  0  0  0  0  0  0  0
   31.5998   29.0552   16.6702 H   0  0  0  0  0  0  0  0  0  0  0  0
   49.1547   37.5838   12.0777 C   0  0  0  0  0  0  0  0  0  0  0  0
   49.4564   36.8911   14.1263 H   0  0  0  0  0  0  0  0  0  0  0  0
   48.4519   38.3816   13.9773 H   0  0  0  0  0  0  0  0  0  0  0  0
   50.3199   38.3919   12.0335 O   0  0  0  0  0  0  0  0  0  0  0  0
   48.3781   38.1172   11.4896 H   0  0  0  0  0  0  0  0  0  0  0  0
   49.3026   36.5832   11.5983 H   0  0  0  0  0  0  0  0  0  0  0  0
   51.0485   37.8930   12.4617 H   0  0  0  0  0  0  0  0  0  0  0  0
  1 53  1  0  0  0  0
  1 54  1  0  0  0  0
  2  1  1  0  0  0  0
  3  2  1  0  0  0  0
  3  5  1  0  0  0  0
  4  3  1  0  0  0  0
  6  3  1  0  0  0  0
  6  7  1  0  0  0  0
  8  7  1  0  0  0  0
  8 13  1  0  0  0  0
  9  6  1  0  0  0  0
 10  6  1  0  0  0  0
 11  8  1  0  0  0  0
 12  8  1  0  0  0  0
 13 17  1  0  0  0  0
 13 14  1  0  0  0  0
 14 15  1  0  0  0  0
 15 18  1  0  0  0  0
 15 20  1  0  0  0  0
 16 13  1  0  0  0  0
 19 15  1  0  0  0  0
 20 24  1  0  0  0  0
 20 23  1  0  0  0  0
 21 22  1  0  0  0  0
 21 20  1  0  0  0  0
 22 25  1  0  0  0  0
 22 26  1  0  0  0  0
 27 31  1  0  0  0  0
 27 22  1  0  0  0  0
 28 27  1  0  0  0  0
 29 32  1  0  0  0  0
 29 28  1  0  0  0  0
 30 27  1  0  0  0  0
 33 29  1  0  0  0  0
 34 35  1  0  0  0  0
 34 29  1  0  0  0  0
 36 41  1  0  0  0  0
 36 35  1  0  0  0  0
 37 34  1  0  0  0  0
 38 34  1  0  0  0  0
 39 36  1  0  0  0  0
 40 36  1  0  0  0  0
 41 42  1  0  0  0  0
 41 44  1  0  0  0  0
 42 43  1  0  0  0  0
 43 48  1  0  0  0  0
 43 47  1  0  0  0  0
 45 41  1  0  0  0  0
 46 43  1  0  0  0  0
 48 51  1  0  0  0  0
 48 52  1  0  0  0  0
 49 50  1  0  0  0  0
 49 48  1  0  0  0  0
 50 62  1  0  0  0  0
 50 61  1  0  0  0  0
 53 58  1  0  0  0  0
 53 56  1  0  0  0  0
 55  1  1  0  0  0  0
 56 59  1  0  0  0  0
 57 53  1  0  0  0  0
 60 50  1  0  0  0  0
 63 60  1  0  0  0  0
 63 66  1  0  0  0  0
 64 60  1  0  0  0  0
 65 60  1  0  0  0  0
M  END
