46
1-HEXADECYNE.gamout
C         10.98185        1.24301        1.81413
C          9.68579        1.09154        1.00745
C          8.40764        1.29445        1.83146
C         12.25820        1.04812        0.98532
C          7.11273        1.14968        1.02147
C         13.55655        1.21475        1.78601
C          5.83344        1.35704        1.84296
C         14.83147        1.02993        0.95229
C          4.53831        1.21369        1.03269
C         16.12732        1.22977        1.74483
C          3.25915        1.42317        1.85278
C         17.39135        1.04239        0.88192
C          1.96587        1.27697        1.04305
C         18.63989        1.28190        1.60583
C          0.69710        1.48859        1.87173
C         19.66533        1.48272        2.21950
H         11.00275        2.24457        2.28400
H         10.97695        0.52047        2.65191
H          9.69425        1.81202        0.16788
H          9.66276        0.08895        0.53975
H          8.39662        0.57214        2.66943
H          8.43292        2.29596        2.30133
H         12.24182        0.04392        0.52090
H         12.25691        1.76619        0.14367
H          7.08669        0.14753        0.55295
H          7.12614        1.87070        0.18235
H         13.56279        0.49546        2.62634
H         13.57029        2.21830        2.25154
H          5.86052        2.35920        2.31146
H          5.81989        0.63606        2.68210
H         14.81619        1.73821        0.10264
H         14.83118        0.01988        0.50060
H          4.55254        1.93382        0.19280
H          4.51055        0.21100        0.56532
H         16.14435        2.24112        2.18738
H         16.16460        0.52437        2.59333
H          3.28406        2.42673        2.31880
H          3.24357        0.70417        2.69382
H         17.40658        0.01958        0.46225
H         17.34740        1.72327        0.01170
H          1.93935        0.27362        0.57879
H          1.97930        1.99486        0.20217
H          0.66918        2.49886        2.31472
H          0.63395        0.76388        2.70134
H         -0.20919        1.36989        1.25724
H         20.57552        1.65963        2.76042
