36
2-HISOQUIN+1.gamout
C          0.82377       -1.18422       -0.05044
C          0.12333       -2.43566       -0.05790
C          2.22231       -1.15023       -0.30340
C          0.84002       -3.62039       -0.34908
C          2.19926       -3.56049       -0.58862
H          0.31326       -4.57598       -0.37152
C          0.09574       -0.01323        0.22132
C         -1.26439       -2.41222        0.24646
C         -1.89537       -1.23137        0.52478
H         -1.84015       -3.33804        0.27421
N         -1.20996       -0.03904        0.49451
H          0.57651        0.96635        0.22120
H         -2.95346       -1.16842        0.77863
C         -1.95403        1.22405        0.73913
C         -2.95455        1.54226       -0.37573
H         -1.20500        2.02314        0.82888
H         -2.45015        1.12400        1.71601
C         -3.55536        2.94960       -0.24103
H         -3.75953        0.78685       -0.37871
H         -2.43672        1.45503       -1.34606
C         -4.33307        3.20519        1.05607
H         -2.74498        3.69105       -0.34890
H         -4.22553        3.11106       -1.10256
C         -5.03383        4.57094        1.10960
H         -5.09084        2.41075        1.18368
H         -3.65479        3.12456        1.92730
C         -4.09239        5.77611        1.06201
H         -5.63070        4.61402        2.03610
H         -5.76207        4.63688        0.28090
H         -3.35335        5.74685        1.88152
H         -3.53639        5.83538        0.11193
H         -4.65561        6.71576        1.16558
C          2.89466       -2.32434       -0.55994
H          2.75049       -4.47802       -0.80572
H          2.74810       -0.19450       -0.28423
H          3.97116       -2.30868       -0.74068
