23
4-PHENYLBUTYRATE-1.gamout
O         -2.15702       -1.56615        0.23851
O         -4.31614       -0.89113        0.17645
C         -0.33835        0.82837        0.46073
C         -1.16090        0.78561       -0.84461
C          1.10164        0.42584        0.27686
C         -2.65948        0.64980       -0.58213
C          1.39717       -0.93012        0.04145
C          2.16286        1.34117        0.30062
C          2.71123       -1.34723       -0.16566
C          3.48250        0.92491        0.09264
C         -3.09117       -0.75273        0.00400
C          3.76282       -0.42202       -0.14288
H         -0.40186        1.83194        0.91817
H         -0.81786        0.10206        1.13501
H         -0.84444       -0.09903       -1.41946
H         -0.92852        1.67540       -1.46191
H         -3.23251        0.80763       -1.51329
H         -3.01418        1.43179        0.11651
H          0.55893       -1.63403        0.02699
H          1.95076        2.39873        0.48592
H          2.92277       -2.40503       -0.34714
H          4.29366        1.65894        0.11306
H          4.79310       -0.75041       -0.30695
