24
ALFA_D-FRUCTOFURANOSE.gamout
O          3.24897        0.35257        1.14469
C          4.09026       -0.07782        2.22325
C          3.17792       -0.06905        3.48678
C          1.79813        0.31436        2.93879
C          1.92948       -0.05627        1.45732
H          1.81383       -1.15413        1.35943
C          0.93883        0.64654        0.54950
H          1.72277        1.42114        3.00553
O          0.75693       -0.32514        3.62940
H          3.12881       -1.10352        3.86843
O          3.67790        0.82201        4.46370
C          5.29555        0.86351        2.29279
O          4.52492       -1.38619        2.01072
H          1.07377        0.30967       -0.49577
H          1.14266        1.73533        0.58124
O         -0.35625        0.33594        1.04837
H         -1.02429        0.67343        0.44010
H         -0.04147       -0.19080        3.09380
H          3.18207        0.67212        5.27879
H          5.26693       -1.30708        1.38543
O          6.17253        0.48779        1.24069
H          7.04646        0.85466        1.41625
H          5.76519        0.74105        3.28248
H          4.95118        1.90698        2.19274
