20
AMIM+1.gamout
C         -6.67010       -1.46342        0.30471
N         -5.22467       -1.39515        0.08049
H         -6.99918       -0.49461        0.69878
H         -6.89842       -2.23778        1.03570
H         -7.18520       -1.66431       -0.64790
C         -4.51954       -0.27603       -0.31939
C         -3.22586       -0.66596       -0.53448
H         -4.98627        0.70158       -0.41324
N         -3.16158       -2.01701       -0.24700
H         -2.35587       -0.09680       -0.85199
C         -4.38109       -2.43361        0.12470
H         -4.64288       -3.45843        0.39484
C         -2.00904       -2.91018       -0.47728
C         -0.66069       -2.38477       -0.07848
H         -2.00183       -3.18093       -1.53595
H         -2.22631       -3.85733        0.05854
C         -0.38475       -1.40483        0.78960
H          0.16212       -2.92150       -0.56192
H         -1.15365       -0.83550        1.31802
H          0.65292       -1.14375        0.99024
