34
AMINOPYRINE.gamout
O          0.62178       -2.05120        0.04962
N          0.41433        1.42158        0.20900
N         -0.15141        0.14219        0.35216
N          3.33261       -0.63635       -0.46225
C          1.77072        1.24144       -0.02550
C          2.06804       -0.09029       -0.13377
C          0.83660       -0.85146        0.08937
C         -1.53083       -0.04435        0.08321
C          2.72862        2.38378       -0.08433
C         -0.04280        2.41921        1.17158
C          3.40076       -1.18435       -1.81599
C          3.84118       -1.57263        0.54014
C         -2.17906       -1.17332        0.61151
C         -2.25269        0.86577       -0.70705
C         -3.53404       -1.38110        0.34564
C         -3.61344        0.65526       -0.94673
C         -4.26178       -0.46738       -0.42380
H          3.73761        1.96870       -0.21211
H          2.71105        2.98659        0.83857
H          2.50883        3.06039       -0.92743
H          0.36477        3.39852        0.88803
H          0.27244        2.17441        2.20348
H         -1.13821        2.48515        1.14045
H          3.01766       -0.44621       -2.53688
H          4.45288       -1.39087       -2.07641
H          2.82207       -2.12272       -1.94076
H          4.88356       -1.83671        0.29462
H          3.24831       -2.50581        0.60579
H          3.84310       -1.09137        1.53048
H         -1.61544       -1.88915        1.20827
H         -1.74603        1.72845       -1.14344
H         -4.02371       -2.26874        0.75534
H         -4.16510        1.37333       -1.55987
H         -5.32567       -0.62795       -0.61584
