29
DCF-1.gamout
C         -1.55787       -4.35978        0.59137
C         -0.23364       -4.33731        0.15427
C         -2.40227       -3.29677        0.28196
C         -1.99645       -2.16822       -0.48688
C         -0.65630       -2.22975       -0.96927
C          0.20662       -3.27398       -0.63352
Cl        -0.04733       -1.03053       -2.08433
Cl        -4.06055       -3.36554        0.87463
H         -1.94998       -5.18944        1.18015
H          0.44136       -5.15952        0.40425
H          1.22059       -3.25873       -1.03864
N         -2.88855       -1.16670       -0.79114
H         -3.85903       -1.45756       -0.75815
C         -2.71389        0.24213       -0.71825
C         -1.70640        0.79722        0.08746
C         -1.57597        2.17984        0.21144
C         -2.47849        3.01707       -0.45240
C         -3.63645        1.07867       -1.39461
C         -3.49758        2.47045       -1.22828
C         -4.74136        0.54269       -2.26287
C         -4.88122        1.21987       -3.71684
H         -5.71569        0.73534       -1.77422
H         -4.64737       -0.53948       -2.42441
H         -4.19091        3.08733       -1.80461
H         -2.39024        4.10382       -0.35717
H         -0.78120        2.59719        0.83612
H         -1.03491        0.13604        0.64055
O         -5.04423        2.45653       -3.71595
O         -4.84521        0.41453       -4.64986
