59
DESOXYCORTICOSTERONE_ACETATE.gamout
O          4.41555        1.34033       -0.78212
O          5.47103       -1.07292       -0.22837
O         -6.98001       -1.52647        1.13079
O          6.64216       -1.58535        1.63142
C          0.10856        1.47463        0.38238
C          1.20043        0.53168       -0.18546
C         -1.30012        1.22770       -0.18976
C         -1.70928       -0.25231        0.06260
C         -3.15269       -0.61842       -0.45512
C          2.45381        1.07302        0.59339
C          0.78627       -0.90809        0.13177
C         -0.61674       -1.23789       -0.41169
C          0.74564        2.87096        0.30112
C          2.24027        2.61479        0.64281
C         -2.34491        2.17258        0.41375
C          1.41028        0.70539       -1.69840
C         -4.14639        0.42137        0.05710
C         -3.75894        1.86836       -0.10121
C         -3.54989       -2.01822        0.07221
C         -3.21343       -0.61566       -1.99969
C          3.80662        0.66730        0.01567
C         -5.04039       -2.34416       -0.02822
C         -5.34479        0.08671        0.58738
C         -5.89464       -1.28226        0.63567
C          4.36818       -0.64659        0.54656
C          6.55882       -1.53669        0.43049
C          7.61858       -1.97398       -0.54631
H          0.04481        1.22894        1.46080
H         -1.27100        1.41100       -1.27960
H         -1.76181       -0.35523        1.16384
H          2.39449        0.65138        1.61109
H          0.79319       -1.05362        1.22668
H          1.50660       -1.62906       -0.28860
H         -0.58185       -1.26190       -1.51282
H         -0.87405       -2.25975       -0.09644
H          0.28490        3.58355        1.00004
H          0.63476        3.29542       -0.71085
H          2.91788        3.11010       -0.06731
H          2.49374        2.99399        1.64462
H         -2.09486        3.22046        0.18679
H         -2.33458        2.07956        1.51568
H          1.83147        1.68696       -1.95111
H          2.10997       -0.05287       -2.08087
H          0.47303        0.59364       -2.25825
H         -3.80432        2.12443       -1.17716
H         -4.49615        2.51272        0.39800
H         -3.25766       -2.08276        1.13489
H         -2.97274       -2.78846       -0.45669
H         -2.89419        0.34514       -2.42607
H         -2.56737       -1.39951       -2.41805
H         -4.23880       -0.80180       -2.34938
H         -5.27056       -3.31370        0.43426
H         -5.36554       -2.41756       -1.08284
H         -6.01576        0.86406        0.96244
H          3.58605       -1.42555        0.54555
H          4.67291       -0.50806        1.59852
H          7.77287       -1.19219       -1.30429
H          7.28422       -2.88177       -1.07465
H          8.55069       -2.18727       -0.00958
