57
DEXAMETHASONE.gamout
F          1.38877        0.04329        1.29609
O         -2.91838       -0.38876        1.88032
O          0.47807        2.11641       -1.44722
O         -4.88056        0.58016       -0.90276
O         -5.91987        2.24545        0.81595
O          6.30799        0.30573        1.54960
C         -1.76802        0.16620       -0.26812
C         -0.89662       -1.09125       -0.03451
C          0.52175       -1.00421       -0.63697
C          1.25207        0.25373       -0.09414
C         -3.09285       -0.30697        0.47035
C         -1.82164       -2.26308       -0.40744
C         -1.03997        1.36663        0.35537
C         -3.26290       -1.76869       -0.06366
C          0.41028        1.56159       -0.14485
C          2.73456        0.38261       -0.64490
C          1.34234       -2.26474       -0.30736
C         -2.04242        0.42978       -1.75739
C          2.81147       -2.17248       -0.74869
C          3.45612       -0.90109       -0.27089
C         -4.32254        0.56356        0.17843
C         -4.02102       -2.69458        0.88556
C          2.80222        0.52796       -2.19224
C          3.41474        1.60950       -0.08993
C          4.60372       -0.89774        0.43267
C         -4.89309        1.44067        1.29122
C          4.56466        1.59201        0.59794
C          5.25787        0.32900        0.92312
H         -0.75654       -1.15050        1.05515
H          0.44954       -0.90597       -1.73224
H         -1.74645       -2.51979       -1.47722
H         -1.57363       -3.17424        0.15658
H         -0.96229        1.23621        1.44675
H         -1.58537        2.31030        0.18079
H         -3.84609       -1.68113       -0.99145
H          0.89687        2.24293        0.57414
H          0.88070       -3.14315       -0.78212
H          1.31224       -2.43484        0.78069
H         -2.57546       -0.39679       -2.23926
H         -2.66309        1.32682       -1.88773
H         -1.10568        0.60303       -2.29679
H          2.86477       -2.22236       -1.85152
H          3.36967       -3.04026       -0.37024
H         -5.03848       -2.32454        1.08946
H         -4.11742       -3.69134        0.42799
H         -3.50071       -2.80216        1.84877
H          2.23588       -0.25748       -2.70774
H          2.40301        1.49526       -2.51119
H          3.85311        0.44928       -2.50667
H         -2.47355        0.40377        2.20677
H          2.95675        2.56711       -0.34894
H         -0.05099        2.92532       -1.46309
H          5.11963       -1.83035        0.67380
H         -4.07133        2.05034        1.72320
H         -5.21653        0.76101        2.10717
H          5.05111        2.50919        0.93708
H         -6.08652        1.93643       -0.09451
