6
DICYANAMIDE-1.gamout
N         -0.00000       -0.88070       -0.07510
N         -2.04980        0.52770        0.03610
N          2.04980        0.52760        0.03610
C         -1.08540       -0.10900       -0.02390
C          1.08530       -0.10910       -0.02390
H         -0.00010       -1.78470        0.39780
