24
DIPROPYLCARBAMATE-1.gamout
C         -5.60277        1.68350       -0.45560
C         -4.33611        2.54309       -0.43556
H         -5.48588        0.78299       -1.09378
H         -6.47844        2.23952       -0.82705
H         -5.85043        1.32675        0.56460
C         -3.14566        1.79223        0.17416
H         -4.48165        3.45046        0.17633
H         -4.07738        2.87341       -1.45807
C         -0.69428        1.73370        0.13890
C          0.50863        2.44421       -0.49326
C          1.75976        1.56541       -0.51487
H          1.60918        0.63722       -1.09998
H          2.04029        1.26133        0.51322
H          2.62810        2.08774       -0.95106
H          0.67906        3.35936        0.09102
H          0.24436        2.74608       -1.52386
N         -1.90004        2.54133        0.25935
H         -0.36937        1.33480        1.13048
H         -0.93762        0.85297       -0.48881
H         -2.95543        0.88883       -0.44241
H         -3.46355        1.41957        1.17820
C         -1.86418        3.57776        1.31328
O         -2.98073        4.00105        1.68316
O         -0.72175        3.89791        1.70942
