63
ETORPHINE.gamout
O         -0.41132       -2.46621        2.01338
O          2.27278       -3.50170        0.84349
O          3.89679       -2.60579       -1.39412
O         -3.10374       -3.58437        2.24426
N          0.28471        2.32237       -0.09852
C          0.14147       -0.33176        1.01782
C          0.55459       -0.08746       -0.45832
C          0.72124       -1.66470        1.57355
C          1.61377       -2.30226        0.46161
C         -0.20446        1.19228       -0.89320
C          2.10155       -0.02034       -0.56426
C          2.72908       -1.18997        0.24347
C          0.50469        0.88565        1.88699
C         -1.32543       -0.63112        0.97341
C          0.21237       -1.33076       -1.24464
C         -1.77059        1.01193       -0.84613
C          0.78837       -2.45033       -0.79567
C         -0.03082        2.19687        1.31424
C          4.10418       -1.70370       -0.31090
C         -2.26374       -0.01623        0.15532
C         -1.55804       -1.84277        1.59320
C          4.98662       -2.40747        0.76005
C         -0.02287        3.62875       -0.63414
C         -3.55617       -0.57103        0.17617
C          4.92466       -0.55327       -0.91050
C         -2.83253       -2.40329        1.62571
C         -3.84287       -1.71407        0.93334
C          1.52520       -4.64691        1.21145
C          5.27441       -1.64620        2.05787
C          6.24176       -2.39005        2.98201
H          1.34824       -1.51155        2.46271
H          0.06622        1.40614       -1.93742
H          2.47712        0.94260       -0.19902
H          2.36277       -0.09470       -1.62769
H          2.93879       -0.79119        1.24520
H          1.60092        0.94001        1.96845
H          0.11064        0.74282        2.90500
H         -0.40062       -1.28551       -2.14596
H         -2.12371        0.70620       -1.84490
H         -2.22983        2.00026       -0.67365
H          0.69242       -3.41758       -1.28619
H         -1.12564        2.26596        1.50731
H          0.42864        3.04242        1.84938
H          5.93999       -2.63381        0.25414
H          4.52851       -3.37236        1.01600
H         -1.09805        3.91451       -0.56160
H          0.26396        3.68066       -1.69638
H          0.55189        4.39906       -0.09445
H         -4.35116       -0.13171       -0.43249
H          4.46439       -0.19074       -1.83727
H          5.92915       -0.92204       -1.16184
H          5.02715        0.29214       -0.21388
H          3.51087       -3.40394       -1.00527
H         -4.84919       -2.13970        0.94404
H          2.24279       -5.47905        1.26433
H          0.74754       -4.90501        0.47017
H          1.04482       -4.52951        2.19634
H          4.32937       -1.47346        2.60215
H          5.68440       -0.64561        1.83311
H         -2.28515       -3.91294        2.64142
H          7.22264       -2.54798        2.50197
H          5.84897       -3.38343        3.26017
H          6.41339       -1.82895        3.91377
