35
FAMOTIDINE.gamout
S          0.98072       -3.21588        0.81968
S          1.91974        2.74830        0.50080
S         -3.98324       -2.09486        0.69690
O          1.74050        2.61033        1.95762
O          0.91454        3.47325       -0.29407
N          2.19857        1.30840       -0.27523
N         -1.65081       -1.33197       -0.14918
N          1.72220       -0.14087        1.55348
N         -3.21661        0.45101        0.30950
N          3.32766        3.61472        0.28092
N         -2.84871        2.70803        0.20882
N         -1.23109        1.30885       -0.66323
C          2.19480       -1.04076       -0.68158
C          2.35843       -2.46575       -0.13701
C         -0.36059       -3.41005       -0.44998
C          2.02836        0.13084        0.27673
C         -1.61963       -2.70169       -0.06349
C         -2.77132       -3.29825        0.37499
C         -2.82042       -0.82937        0.21362
C         -2.42064        1.44518       -0.04979
H          1.37813       -0.97972       -1.41864
H          3.10530       -0.79681       -1.25279
H          2.60889       -3.13310       -0.97553
H          3.21947       -2.50974        0.55032
H         -0.53373       -4.48749       -0.57171
H          0.01469       -3.01259       -1.40512
H         -2.96516       -4.35935        0.51443
H          1.27465       -1.03840        1.74613
H          1.51519        0.65194        2.16456
H          3.46207        3.82345       -0.70887
H          4.13580        3.13198        0.67333
H         -3.69209        2.80658        0.75612
H         -2.24253        3.50260        0.05934
H         -0.59315        2.09234       -0.77630
H         -0.91574        0.34625       -0.79309
