67
FLUOCINONIDE.gamout
F          2.05234        0.15095       -1.23060
F          4.61919        2.34642        1.27978
O         -2.36337        1.05825       -1.47404
O         -2.08260        3.09221       -0.52470
O          0.77558       -2.58266        0.64821
O         -4.28218        0.38541        1.34211
O         -5.48760       -1.43090       -0.24936
O          6.79783       -0.75472       -1.83593
O         -4.17048       -2.89034        0.84716
C         -1.11836       -0.04324        0.35948
C         -0.05803        1.07805        0.50861
C          1.32223        0.57509        0.97749
C         -2.37976        0.79924       -0.07968
C          1.84647       -0.50863       -0.00242
C         -2.15913        2.20526        0.58091
C         -0.79653        2.17277        1.28453
C         -0.59409       -1.02471       -0.69148
C          0.80358       -1.59715       -0.37415
C          3.27424       -1.05181        0.42342
C          2.34391        1.72404        1.07125
C         -1.42820       -0.75156        1.68703
C          3.76759        1.25904        1.38053
C         -3.72411        0.15724        0.29534
C         -2.53176        2.46128       -1.70374
C          4.19820        0.15040        0.45815
C          3.29229       -1.70946        1.83310
C          3.76361       -2.11330       -0.52953
C         -4.33781       -0.78353       -0.74960
C         -3.99835        2.80282       -1.97167
C         -1.62404        2.86034       -2.84685
C          5.32855        0.22914       -0.26319
C          4.90114       -2.03338       -1.23286
C          5.77235       -0.84151       -1.17651
C         -5.27165       -2.46979        0.58650
C         -6.57228       -3.01714        1.09748
H          0.09424        1.47887       -0.50616
H          1.21510        0.10589        1.96755
H         -2.99122        2.48024        1.24636
H         -0.91286        1.93069        2.35290
H         -0.33183        3.16352        1.20348
H         -0.53800       -0.50827       -1.65865
H         -1.27304       -1.88252       -0.83346
H          1.17978       -2.04316       -1.31086
H          2.04125        2.45154        1.83729
H          2.38639        2.25430        0.10700
H         -1.87316       -0.07327        2.42491
H         -2.14721       -1.56578        1.52429
H         -0.52714       -1.19854        2.11846
H          3.83356        0.91182        2.42900
H          2.74318       -2.65526        1.82718
H          4.33720       -1.89971        2.11879
H          2.84467       -1.06626        2.60108
H          3.15953       -3.02246       -0.57146
H          0.01529       -3.15970        0.49394
H         -3.57953       -1.50962       -1.08250
H         -4.64613       -0.19302       -1.62294
H         -4.36285        2.30958       -2.88622
H         -4.63448        2.49972       -1.12619
H         -4.10702        3.88937       -2.09724
H         -0.58596        2.59992       -2.60224
H         -1.91426        2.33839       -3.77013
H         -1.68493        3.94453       -3.01732
H          5.97247        1.10547       -0.19272
H          5.24235       -2.84928       -1.87301
H         -7.19778       -2.19632        1.47727
H         -6.37759       -3.75194        1.88718
H         -7.11965       -3.49785        0.27135
