18
GLYPHOSATE.gamout
P         -2.80416        2.09384       -0.69014
O         -3.20756        3.67704       -0.69828
O         -2.49063        1.72307        0.86810
O         -3.83758        1.22440       -1.31388
O          2.91838       -0.50641       -1.28819
O          1.46005       -0.40709        0.37834
N         -0.41818        0.93951       -1.07873
C         -1.09431        2.19103       -1.29492
C          0.91231        0.83315       -1.60800
C          1.75813       -0.09458       -0.74123
H         -0.61155        3.08122       -0.82818
H         -1.15734        2.41934       -2.37476
H         -0.42370        0.65276       -0.09887
H          1.45282        1.81203       -1.60481
H          0.92346        0.47949       -2.65855
H         -4.13613        3.78008       -0.95772
H         -3.17458        1.13789        1.22440
H          3.04358       -0.11569       -2.16467
