20
HISTIDINE.gamout
O         -2.33928       -1.74807       -0.56761
O         -1.33411       -1.08876        1.31698
N          1.41004       -0.34900        0.85013
N         -2.78059        1.15456       -0.57938
N          3.18538        0.17732       -0.36968
C         -0.34983        1.30761        0.09708
C         -1.48750        0.47884       -0.54121
C          1.02065        0.71034        0.05569
C         -1.69412       -0.85151        0.18283
C          2.14553        1.01442       -0.68818
C          2.71113       -0.62941        0.55325
H         -0.64016        1.53108        1.13962
H         -0.32003        2.26999       -0.43567
H         -1.21828        0.22305       -1.57894
H          0.78387       -0.83960        1.48210
H          2.25114        1.80595       -1.43028
H         -2.77257        1.91072       -1.26247
H         -2.99376        1.57055        0.32825
H          3.25925       -1.43760        1.03981
H         -2.45701       -2.54538       -0.02221
