77
HYDROCORTISONE_PIMELAMATE.gamout
O         -0.96940       -2.46059       -2.54170
O         -1.54788        1.73574        0.45089
O          1.87601       -2.95049       -0.59976
O          3.06097       -1.45156       -2.47334
O         -8.33439        3.10669        0.23862
O          2.82534        0.20804       -0.97629
O          9.19066        2.26889        2.91267
N         11.24063        1.87281        2.04154
C         -1.04151       -1.25725       -0.42632
C         -2.41361       -1.86523       -0.04820
C         -3.31442       -0.93220        0.77988
C         -3.53828        0.39764        0.01043
C         -0.41770       -2.47018       -1.22203
C         -1.31929       -0.00425       -1.26103
C         -4.48556        1.41744        0.75934
C         -2.24128        1.01986       -0.56800
C         -2.07111       -3.26489        0.47842
C         -0.87865       -3.70977       -0.40930
C         -4.67319       -1.58807        1.07072
C         -0.16285       -0.93628        0.79146
C         -5.79211        0.70081        1.07898
C         -5.67240       -0.64188        1.75042
C         -4.76210        2.62469       -0.16432
C         -3.90964        1.91736        2.10735
C          1.11654       -2.39394       -1.35623
C         -5.96039        3.47763        0.24721
C         -7.00380        1.25967        0.86245
C         -7.21854        2.64805        0.41039
C          1.65372       -1.57243       -2.53763
C          3.53854       -0.55346       -1.58468
C          5.04448       -0.62237       -1.50411
C          5.62739        0.13109       -0.30808
C          7.15788        0.23489       -0.34332
C          7.76328        0.95628        0.86803
C          9.28820        1.05693        0.82220
C          9.87625        1.78957        2.02910
H         -2.92876       -2.01927       -1.01407
H         -2.81165       -0.72042        1.73997
H         -4.10907        0.11171       -0.89304
H         -1.76766       -0.30991       -2.21651
H         -0.38091        0.52058       -1.51034
H         -2.55033        1.73302       -1.35373
H         -2.91927       -3.95805        0.40042
H         -1.77328       -3.23667        1.53982
H         -0.04020       -4.09226        0.18820
H         -1.16787       -4.51926       -1.10117
H         -4.54413       -2.48354        1.69932
H         -5.11385       -1.93668        0.11798
H          0.09190       -1.83174        1.37256
H         -0.66566       -0.22419        1.45328
H          0.77868       -0.46894        0.47153
H         -5.34948       -0.46830        2.79493
H         -6.66090       -1.11934        1.81510
H         -4.94258        2.25034       -1.18725
H         -3.86288        3.25305       -0.21212
H         -3.03735        2.55657        1.94039
H         -3.59356        1.08675        2.75152
H         -4.67761        2.48166        2.65777
H         -0.93527       -3.36227       -2.88677
H         -6.16439        4.26843       -0.48788
H         -5.77591        3.98928        1.20972
H         -0.67495        1.97238        0.10966
H         -7.91959        0.71210        1.10017
H          1.16798       -0.58581       -2.56078
H          1.41205       -2.08424       -3.47872
H          5.42995       -0.21134       -2.45608
H          5.33017       -1.68709       -1.50825
H          5.30512       -0.37307        0.62021
H          5.17489        1.13563       -0.27414
H          7.46275        0.75604       -1.27174
H          7.59132       -0.78072       -0.42125
H          7.34437        1.97300        0.95368
H          7.47001        0.44386        1.80023
H          9.74626        0.05193        0.76657
H          9.61828        1.58590       -0.09169
H         11.82169        1.47754        1.31519
H         11.68053        2.34909        2.81951
