73
HYDROCORTISONE_CAPROATE.gamout
O          0.46083       -2.39034       -2.16880
O         -0.96863        1.85018        0.47425
O          3.06708       -2.32245        0.16695
O          4.32249       -0.95349       -1.76721
O         -7.76169        2.30590       -0.85696
O          3.71157        0.73605       -0.41398
C          0.00143       -1.08957       -0.16359
C         -1.32694       -1.84447        0.08264
C         -2.44132       -0.99046        0.71167
C         -2.70738        0.26612       -0.16209
C          0.85443       -2.25793       -0.80013
C         -0.30719        0.08146       -1.10022
C         -3.86614        1.19099        0.38437
C         -1.42058        1.01901       -0.59032
C         -0.89115       -3.15579        0.75032
C          0.44497       -3.50001        0.03980
C         -3.74094       -1.79961        0.85047
C          0.67486       -0.60482        1.12952
C         -5.10951        0.32714        0.56199
C         -4.92898       -0.95580        1.33203
C         -4.14851        2.31159       -0.64251
C         -3.55281        1.82197        1.76333
C          2.36629       -1.99461       -0.76135
C         -5.49684        3.01009       -0.46713
C         -6.33278        0.70486        0.12722
C         -6.64532        2.02255       -0.46084
C          2.95819       -1.26062       -1.97202
C          4.57695        0.02885       -0.87332
C          6.05498        0.11903       -0.57887
C          6.41357        1.15940        0.48404
C          7.92296        1.29311        0.72591
C          8.29943        2.32403        1.79745
C          9.80749        2.45142        2.02278
H         -1.68399       -2.12358       -0.92534
H         -2.12102       -0.67332        1.71987
H         -3.10228       -0.12564       -1.11842
H          0.59318        0.69463       -1.27678
H         -0.60872       -0.31785       -2.07918
H         -1.69518        1.65657       -1.45018
H         -1.63512       -3.95398        0.62358
H         -0.73144       -3.02922        1.83383
H          0.34200       -4.36862       -0.63353
H          1.24734       -3.74598        0.74814
H         -3.99279       -2.24233       -0.13123
H         -3.59928       -2.64287        1.54464
H          0.98182       -1.43343        1.77958
H          0.00430        0.05278        1.69154
H          1.57782       -0.02407        0.89283
H         -5.85546       -1.54630        1.28950
H         -4.77526       -0.70214        2.39819
H         -3.34462        3.05811       -0.59365
H         -4.11591        1.87808       -1.65724
H         -2.74176        2.55062        1.67630
H         -4.45092        2.31808        2.16123
H         -3.24434        1.06737        2.49942
H          0.58284       -3.31301       -2.42747
H         -5.53749        3.56635        0.48762
H         -5.67389        3.74484       -1.26412
H         -0.09764        2.19571        0.23702
H         -7.19824        0.05082        0.26185
H          2.90853       -1.90633       -2.85906
H          2.36703       -0.35601       -2.17830
H          6.38397       -0.89188       -0.28169
H          6.56442        0.32100       -1.53850
H          5.98597        2.13331        0.19147
H          5.90523        0.88882        1.42625
H          8.42054        1.56038       -0.22632
H          8.33564        0.30651        1.01045
H          7.80974        2.05402        2.75148
H          7.88587        3.31058        1.51824
H         10.25099        1.49427        2.34605
H         10.32941        2.76073        1.10076
H         10.03243        3.20111        2.79689
