70
HYDROCORTISONE_METHYLSUCCINATE.gamout
O          4.44711       -3.28499        0.07496
O          4.70600       -6.98348       -3.43155
O          7.13521       -4.53972        0.77896
O          5.45565       -2.10598        2.66831
O         -0.26174       -3.38449       -6.26736
O          6.89928       -0.55400        1.88843
O          3.14193       -0.82110        5.87276
O          5.20268       -0.35021        5.24928
C          4.56939       -5.78779        0.16219
C          3.03534       -6.06320        0.22941
C          2.12159       -5.62421       -0.96649
C          2.75538       -5.98033       -2.38862
C          4.73809       -4.41723        0.91050
C          5.07766       -5.82007       -1.29149
C          2.64953       -4.92042       -3.58712
C          4.13845       -6.64858       -2.17199
C          2.63464       -5.53542        1.62370
C          3.65054       -4.43606        2.00140
C          1.41787       -4.24491       -0.84812
C          5.27962       -6.90614        0.95859
C          1.67139       -3.80788       -3.26303
C          1.81791       -3.21702       -1.89986
C          2.14681       -5.69390       -4.83327
C          3.97265       -4.20078       -3.95653
C          6.17634       -4.09961        1.37421
C          1.65087       -4.81369       -5.98135
C          0.75044       -3.34413       -4.13778
C          0.60528       -3.81416       -5.52556
C          6.43487       -3.12750        2.52727
C          5.82597       -0.84019        2.34728
C          4.71373        0.15582        2.59093
C          3.57421       -0.29077        3.49907
C          4.05015       -0.48128        4.93084
C          1.75677       -0.98454        5.60926
H          2.92405       -7.15592        0.24693
H          1.29277       -6.33764       -0.87436
H          2.13485       -6.80339       -2.75962
H          6.08960       -6.24781       -1.32701
H          5.15269       -4.81351       -1.72099
H          3.93118       -7.59594       -1.63782
H          1.59843       -5.17391        1.66303
H          2.68899       -6.36270        2.34560
H          4.08141       -4.61693        2.99729
H          3.20284       -3.43492        2.02981
H          1.57410       -3.80886        0.14614
H          0.33155       -4.40663       -0.94073
H          6.36613       -6.76478        0.95068
H          4.94329       -6.95167        2.00528
H          5.05732       -7.88448        0.50660
H          2.86402       -2.92401       -1.72091
H          1.20254       -2.31218       -1.79570
H          2.94218       -6.36857       -5.17479
H          1.30500       -6.33422       -4.51998
H          3.80224       -3.54284       -4.81965
H          4.33575       -3.55307       -3.14881
H          4.75213       -4.92547       -4.20842
H          5.11704       -3.24135       -0.62278
H          2.47495       -4.23558       -6.43891
H          1.21880       -5.41938       -6.78961
H          5.49926       -7.51281       -3.27665
H          0.08875       -2.52717       -3.84529
H          6.45024       -3.69422        3.47416
H          7.42634       -2.69110        2.35413
H          5.19746        1.05701        2.99283
H          4.31316        0.42599        1.60059
H          2.77016        0.46215        3.46843
H          3.12619       -1.23294        3.14579
H          1.36103       -0.23559        4.90566
H          1.54064       -1.99593        5.22117
H          1.24009       -0.86412        6.57154
