67
HYDROCORTISONE_SODIUM_SUCCINATE.gamout
O          0.60661       -2.25062       -2.27816
O         -0.82525        1.77018        0.70180
O          3.20457       -2.38646        0.05644
O          4.43464       -0.78195       -1.71544
O         -7.60653        2.37918       -0.70752
O          3.68744        0.79274       -0.29806
O          7.87599        2.29291        2.12930
O          8.41753        1.92631       -0.01488
C          0.12978       -1.10753       -0.18262
C         -1.20776       -1.86714       -0.02026
C         -2.31797       -1.05824        0.67526
C         -2.56327        0.26774       -0.10123
C          0.98737       -2.22405       -0.89951
C         -0.14891        0.14552       -1.01507
C         -3.73126        1.15129        0.49156
C         -1.26613        1.04340       -0.44167
C         -0.78994       -3.23258        0.54292
C          0.56236       -3.52424       -0.16220
C         -3.62463       -1.86239        0.73825
C          0.78865       -0.74297        1.15757
C         -4.98068        0.28373        0.58675
C         -4.81393       -1.04933        1.26738
C         -3.99321        2.34875       -0.45232
C         -3.43570        1.67738        1.91731
C          2.50054       -1.96681       -0.83093
C         -5.34163        3.03804       -0.24715
C         -6.19667        0.69984        0.16675
C         -6.49554        2.05866       -0.32412
C          3.09074       -1.13919       -1.98195
C          4.60705        0.18272       -0.79468
C          6.06554        0.41066       -0.49807
C          6.26394        1.18456        0.79739
C          7.62878        1.82244        0.89257
H         -1.55734       -2.04774       -1.05276
H         -1.99543       -0.82556        1.70507
H         -2.93782       -0.05033       -1.09238
H          0.75995        0.76345       -1.11285
H         -0.43514       -0.15788       -2.03243
H         -1.51665        1.76330       -1.24228
H         -0.65857       -3.18869        1.63686
H         -1.52939       -4.01892        0.33879
H          0.45829       -4.33671       -0.90202
H          1.35018       -3.83416        0.53769
H         -3.86920       -2.22629       -0.27701
H         -3.49876       -2.75844        1.36653
H          1.07781       -1.62745        1.73923
H          1.70202       -0.15653        0.98666
H          0.11451       -0.13265        1.76629
H         -5.73988       -1.63690        1.18757
H         -4.66663       -0.85867        2.34768
H         -3.94818        1.99152       -1.49592
H         -3.18505        3.08177       -0.33223
H         -4.33377        2.15645        2.33568
H         -2.61540        2.40064        1.89594
H         -3.14647        0.87048        2.60335
H          0.72346       -3.15234       -2.60474
H         -5.50993        3.82764       -0.99183
H         -5.39360        3.52506        0.74438
H          0.05649        2.11816        0.51295
H         -7.06449        0.03984        0.24544
H          2.47149       -0.25069       -2.16992
H          3.09443       -1.74425       -2.89859
H          6.57396       -0.56538       -0.48787
H          6.51233        0.96892       -1.33804
H          5.50215        1.97934        0.86359
H          6.09730        0.55360        1.68471
H          8.75724        2.70383        2.10009
