41
INDOMETHACIN.gamout
Cl        -6.66962       -0.18969        0.45652
O          1.89371       -4.05518        0.27270
O         -1.00012        2.83059       -1.34676
O          4.91686        1.76851       -0.68410
O          5.17855       -0.31791        0.09387
N          0.03026        1.13476       -0.20807
C          2.14837        0.86240        0.55597
C          1.58259       -0.44797        0.32017
C          0.26299       -0.25791       -0.15488
C          1.20694        1.79804        0.20270
C          3.51756        1.11994        1.12640
C          2.11012       -1.73675        0.45544
C         -0.51078       -1.34956       -0.55282
C          1.29740        3.28949        0.26735
C         -1.10364        1.79225       -0.72558
C          1.31899       -2.83330        0.10518
C          0.02104       -2.63537       -0.41179
C         -2.44729        1.21249       -0.42363
C          4.62488        0.75204        0.15044
C         -2.72956        0.51729        0.76079
C         -3.49040        1.48978       -1.32040
C         -4.02872        0.09698        1.04032
C         -4.78710        1.05581       -1.06180
C         -5.04806        0.35538        0.11967
C          1.17336       -5.20937       -0.07846
H          3.68124        0.50857        2.02788
H          3.62938        2.17825        1.39273
H          3.13444       -1.90062        0.79151
H         -1.50702       -1.23107       -0.97550
H          2.25407        3.58248        0.71878
H          1.22366        3.74661       -0.72983
H          0.48701        3.72282        0.87747
H         -0.58849       -3.48498       -0.71960
H         -1.93239        0.30395        1.47432
H         -3.26507        2.05989       -2.22300
H         -4.25544       -0.43586        1.96400
H         -5.59766        1.26367       -1.76054
H          0.91634       -5.22846       -1.15404
H          0.24155       -5.31052        0.50849
H          1.82493       -6.06626        0.14258
H          5.58610        1.43400       -1.30625
