18
ISOCITRATE-3.gamout
O         -0.50970       -0.24610        1.89410
O         -0.64790        2.28130       -1.52700
O         -2.22900       -1.38780       -1.09500
O         -1.34570        1.90080        0.60600
O          3.83590        0.21870        0.32040
O         -2.65750       -1.77080        1.10090
O          2.61510       -1.23790       -0.92190
C          0.11150        0.28850       -0.42310
C         -0.51200       -0.75850        0.52640
C          1.54360        0.71820       -0.01230
C         -0.72640        1.58870       -0.46290
C         -1.94430       -1.32250        0.14150
C          2.75680       -0.19930       -0.21650
H          0.13710       -0.12600       -1.43860
H          0.14090       -1.63940        0.54750
H          1.80280        1.63220       -0.56660
H          1.54080        1.01480        1.04530
H         -1.03370        0.58540        1.78070
