24
MANNOSE.gamout
C        -10.10505       -0.16700       -0.33800
C        -11.40251        0.51706        0.21053
C        -11.22366        2.04847        0.31897
O        -11.77018       -0.01906        1.46173
H        -12.21949        0.30802       -0.50096
O        -10.72562        2.32554        1.61526
H        -12.21603        2.52599        0.18681
C        -10.28985        2.53318       -0.78586
C         -8.88451        1.88245       -0.67649
O        -10.14664        3.94934       -0.77434
H        -10.74340        2.21185       -1.74499
C         -7.84847        2.68814        0.12481
H         -8.47834        1.78694       -1.70511
O         -8.96097        0.61866       -0.04994
H        -10.18157       -0.29474       -1.43960
O         -9.95021       -1.40922        0.22610
H        -10.47292       -1.38571        1.04984
H        -11.36717        0.57153        2.12580
H        -10.79009        3.27235        1.78491
H        -10.99665        4.35773       -0.98397
H         -6.98292        2.01834        0.24164
O         -7.40050        3.84415       -0.53799
H         -8.24524        2.89374        1.13633
H         -8.18481        4.36072       -0.76562
