26
MANNITOL.gamout
O          0.58077        1.16398       -1.44412
O         -0.64834       -1.31029       -1.27146
O          1.94243       -1.16557        1.07601
O         -1.90743        1.04916        1.19641
O          4.32908       -0.03927        0.27996
O         -4.32481        0.14855        0.36607
C          0.59951        0.46913       -0.19330
C         -0.62716       -0.45712       -0.14060
C          1.93854       -0.27737       -0.03058
C         -1.94084        0.32641       -0.01290
C          3.11849        0.66646        0.20429
C         -3.17097       -0.58923       -0.01945
H          0.49133        1.20470        0.62097
H         -0.54014       -1.09082        0.75684
H          2.12664       -0.84610       -0.96571
H         -2.01349        1.01726       -0.88452
H          2.91124        1.24509        1.12906
H          3.19663        1.39277       -0.62078
H         -3.04294       -1.37947        0.73908
H         -3.29262       -1.07958       -0.99956
H          1.34366        0.89003       -1.96990
H         -0.48702       -0.72537       -2.02949
H          1.50344       -1.98586        0.81673
H         -2.83592        1.23450        1.41342
H          4.17566       -0.75264        0.91835
H         -4.62300        0.66558       -0.39451
