33
MEF-1.gamout
N          6.88728        3.02925       -0.64164
C          6.05401        1.96417       -0.30698
C          6.56114        4.21815       -1.37679
C          6.58584        0.65644       -0.34831
C          5.82041       -0.44988       -0.00749
C          4.71840        2.14264        0.15972
C          3.93180        1.00339        0.42825
C          4.15131        3.51994        0.38556
C          4.48055       -0.28226        0.34519
C          2.47978        1.14361        0.82556
C          7.08889        5.42717       -0.92688
C          6.81860        6.64120       -1.57366
C          5.83151        4.14576       -2.62463
C          5.49334        5.41573       -3.20947
C          5.90249        2.92034       -3.41953
C          5.95083        6.61330       -2.68578
O          5.36106        1.81801       -3.32898
O          2.35334        3.37576       -4.07941
H          7.85056        2.72046       -0.77399
H          7.61511        0.52891       -0.69104
H          6.25499       -1.45227       -0.06153
H          3.39280        3.50533        1.18449
H          4.93751        4.23127        0.66776
H          3.67380        3.92754       -0.52417
H          3.85028       -1.15186        0.55456
H          1.99881        0.15558        0.88868
H          2.35010        1.65559        1.79390
H          1.91562        1.72787        0.07730
H          7.71302        5.40105       -0.02959
H          7.26016        7.56658       -1.22138
H          4.88197        5.43860       -4.12247
H          5.63743        7.56334       -3.14486
C          2.23164        3.31638       -2.95526
