40
OCTAMETHYLCYCLOTETRASILOXANE.gamout
Si         1.98957        0.47796        0.15588
O          0.81001        1.59237        0.51012
O          1.33999       -1.05198        0.19444
C          2.68094        0.82361       -1.55724
C          3.28180        0.56809        1.50725
Si        -0.64610        2.34517        0.23766
O         -1.75811        1.24650       -0.32663
C         -0.44882        3.64715       -1.09610
C         -1.22334        3.04964        1.87601
Si         0.20811       -2.15696       -0.32311
C          0.78651       -2.94958       -1.92046
C         -0.02530       -3.38926        1.06960
O         -1.22970       -1.39354       -0.64768
Si        -2.42460       -0.27462       -0.37192
C         -3.26455       -0.64092        1.26952
C         -3.60331       -0.32056       -1.82626
H          1.88812        0.77103       -2.32291
H          3.12871        1.82996       -1.61041
H          3.45882        0.09196       -1.83148
H          4.08547       -0.16880        1.34236
H          3.74018        1.56947        1.56669
H          2.82038        0.34975        2.48488
H         -0.12950        3.18382       -2.04471
H         -1.40551        4.16193       -1.28562
H          0.29965        4.40973       -0.82276
H         -2.20888        3.53615        1.78572
H         -1.30555        2.25447        2.63574
H         -0.50731        3.79772        2.25530
H          0.89266       -2.19364       -2.71627
H          1.76110       -3.45023       -1.79555
H          0.05985       -3.70118       -2.27159
H          0.92179       -3.90533        1.29930
H         -0.35381       -2.87695        1.98945
H         -0.77876       -4.15569        0.82165
H         -2.54010       -0.60714        2.10131
H         -4.05617        0.09484        1.48783
H         -3.72406       -1.64330        1.26858
H         -4.07343       -1.31182       -1.93898
H         -4.40395        0.42938       -1.71398
H         -3.06116       -0.09622       -2.76031
