16
PHTHALATE_DIANION-2.gamout
O          0.79840        2.43733        1.15371
O          6.32081       -5.41536       -1.38751
O          0.83274        2.45342       -1.21757
O          6.25776       -5.46480        1.45650
C         -1.68986        1.50816        0.00038
C         -1.88255        0.29313        0.01023
C         -2.61400        2.55762        0.00270
C         -3.08563       -0.41799       -0.02837
C         -3.90883        1.96416       -0.02778
C         -4.13329        0.54836       -0.03786
C          0.67016        2.39438       -0.03121
C          0.08316       -1.28128        0.11608
H         -2.43778        3.64646        0.00032
H         -3.25491       -1.50790       -0.02583
H         -4.79377        2.64429       -0.05162
H         -5.18574        0.17667       -0.04711
