51
POLY_PAN7.gamout
C         -0.02818        0.19676       -0.03970
C          1.31276       -0.56315       -0.19429
C         -0.10654        1.30893       -0.99992
C         -1.23885       -0.75186       -0.22557
H         -0.07070        0.63038        0.97601
C          2.58862        0.27307        0.07808
H          1.38157       -0.96551       -1.21748
H          1.29621       -1.42223        0.49482
N         -0.16642        2.15387       -1.79098
H         -1.08814       -1.63214        0.42009
H         -1.25447       -1.11137       -1.26669
C         -2.62072       -0.12751        0.08998
H         -2.73875        0.79343       -0.51000
C         -2.68759        0.25647        1.50799
C         -3.77301       -1.10105       -0.26410
C          2.59811        0.74416        1.47116
H          2.57500        1.16229       -0.57765
C          3.86916       -0.54684       -0.22195
H          3.77983       -0.95359       -1.24192
H          3.91196       -1.40373        0.46845
C          5.20561        0.22728       -0.10338
N         -2.72924        0.51447        2.63703
N          2.59861        1.06746        2.58410
H         -3.68877       -1.99896        0.36848
H         -3.63311       -1.42451       -1.30794
C         -5.20639       -0.53804       -0.10405
C         -5.41163        0.60275       -1.00848
H         -5.33343       -0.17107        0.93109
C         -6.26966       -1.62834       -0.37556
H          5.26798        0.67152        0.90692
C          5.24537        1.32830       -1.07695
C          6.42375       -0.70583       -0.31091
H          6.41116       -1.08875       -1.34362
H          6.30811       -1.57439        0.35713
C          7.80602       -0.06481       -0.05839
N         -5.57015        1.46996       -1.76082
N          5.27866        2.16050       -1.88293
H         -6.04930       -2.48930        0.27412
H         -6.17316       -1.97416       -1.41662
C         -7.72790       -1.18493       -0.15644
H         -7.96367       -0.29374       -0.76274
C         -8.03685       -0.89765        1.24661
H         -8.40303       -1.98429       -0.50069
C          7.93193        0.34092        1.34866
H          7.89130        0.85513       -0.66452
C          8.95392       -1.01319       -0.44917
H          8.90146       -1.24362       -1.52366
H          8.89535       -1.95790        0.11387
H          9.92946       -0.55197       -0.24190
N         -8.24855       -0.67632        2.36401
N          8.00900        0.65433        2.46157
