128
POLY_PCL7.gamout
O          5.43390        1.34580        5.75400
C          4.46280        1.85050        4.93860
C          3.90590        0.74620        4.06920
C          2.80820        1.25460        3.13310
C          2.25150        0.12970        2.25910
C          1.15370        0.63440        1.32230
C          0.60190       -0.49100        0.45230
O         -0.41930        0.04640       -0.39950
C         -0.98730       -0.87720       -1.22820
C         -2.04580       -0.21540       -2.08060
C         -2.70940       -1.21480       -3.02810
C         -3.78170       -0.55180       -3.89350
C         -4.43410       -1.56550       -4.83440
C         -5.50310       -0.92010       -5.70130
O          4.10190        3.01860        4.91820
H          4.72910        0.32690        3.48020
H          3.50120       -0.03330        4.72430
H          1.99700        1.69890        3.72350
H          3.20790        2.05340        2.49600
H          3.06360       -0.31030        1.66750
H          1.84990       -0.66610        2.89820
H          0.33540        1.08130        1.90040
H          1.54000        1.43480        0.67910
H          1.40390       -0.91460       -0.16380
H          0.17170       -1.27620        1.08520
O         -0.68190       -2.06070       -1.27030
H         -2.79890        0.22130       -1.41540
H         -1.57050        0.58450       -2.65890
H         -1.94760       -1.67150       -3.67250
H         -3.15850       -2.02980       -2.44670
H         -4.54720       -0.10080       -3.25050
H         -3.33260        0.25880       -4.48010
H         -3.67240       -2.01700       -5.48080
H         -4.88630       -2.37660       -4.25170
H         -5.95360       -1.66560       -6.36430
H         -6.29890       -0.48770       -5.08650
H         -5.07780       -0.12590       -6.32300
C          6.02970        2.31850        6.62440
H          5.25670        2.74900        7.27180
H          6.48890        3.11200        6.02310
C          7.09320        1.62530        7.47190
H          7.83560        1.15890        6.81240
H          6.63130        0.80350        8.03320
C          7.77470        2.60370        8.42920
H          7.02230        3.05640        9.08640
H          8.23360        3.41770        7.85480
C          8.84380        1.91200        9.27740
H          9.59650        1.45590        8.62220
H          8.38850        1.09460        9.85050
C          9.52270        2.89390       10.23420
H          8.77590        3.32880       10.90780
H          9.99970        3.69740        9.66200
C         10.58340        2.22250       11.07710
O         10.89120        1.04050       11.01980
O         11.14940        3.13880       11.91540
C         12.17460        2.60230       12.76420
H         12.98100        2.19150       12.14540
H         11.75050        1.80810       13.38970
C         12.71340        3.72750       13.64390
H         11.88860        4.16230       14.22220
H         13.09250        4.53620       13.00670
C         13.81450        3.23200       14.58220
H         14.63410        2.80530       13.99140
H         13.42080        2.42840       15.21630
C         14.35390        4.36030       15.46390
H         13.53510        4.79140       16.05350
H         14.74540        5.16730       14.83190
C         15.45520        3.86280       16.40190
H         16.28480        3.45510       15.81350
H         15.05850        3.07650       17.05370
C         15.99770        4.97060       17.27650
O         15.61620        6.13220       17.26740
O         16.98190        4.47660       18.08260
C         17.56840        5.45150       18.95710
H         16.79310        5.86670       19.61160
H         18.01380        6.25540       18.35930
C         18.64500        4.76550       19.79360
H         19.38860        4.31180       19.12640
H         18.19590        3.93460       20.35180
C         19.32250        5.74350       20.75400
H         18.56960        6.18650       21.41720
H         19.77340        6.56440       20.18320
C         20.39940        5.05270       21.59310
H         21.15180        4.60510       20.93160
H         19.95110        4.22900       22.16260
C         21.07770        6.03100       22.55360
H         20.33160        6.46090       23.23100
H         21.55270        6.83830       21.98510
C         22.14020        5.35520       23.39040
O         22.44930        4.17400       23.32480
O         22.70610        6.26620       24.23420
C         23.73140        5.72340       25.07840
H         24.53580        5.31300       24.45680
H         23.30630        4.92790       25.70170
C         24.27450        6.84340       25.96110
H         23.45220        7.27880       26.54240
H         24.65540        7.65330       25.32650
C         25.37500        6.34010       26.89540
H         26.19150        5.91080       26.30220
H         24.97900        5.53740       27.52920
C         25.92070        7.46480       27.77650
H         25.10480        7.89920       28.36780
H         26.31450        8.27060       27.14430
C         27.02120        6.96250       28.71220
H         27.84880        6.55150       28.12330
H         26.62250        6.17870       29.36580
C         27.56650        8.07090       29.58280
O         27.19090        9.23450       29.56560
O         28.54550        7.57690       30.39520
C         29.12790        8.55880       31.26270
H         28.34940        8.98030       31.90960
H         29.57530        9.35760       30.65940
C         30.20190        7.88630       32.11280
H         30.95320        7.42940       31.45680
H         29.75430        7.06070       32.67990
C         30.86170        8.88640       33.06120
H         30.09860        9.33070       33.71190
H         31.30460        9.70400       32.47940
C         31.94280        8.22930       33.91980
H         32.70960        7.78350       33.27410
H         31.50630        7.40930       34.50350
C         32.58880        9.24510       34.86150
H         31.82790        9.67120       35.52470
H         33.04720       10.05210       34.27940
C         33.65770        8.61910       35.71600
O         34.03330        7.46010       35.70670
O         34.21120        9.51430       36.55710
H         34.88230        8.99490       37.05060
