30
POLY_PLA3.gamout
O         -6.92881        1.84446        2.10860
C         -5.88533        2.37874        1.33590
H         -7.35316        2.57262        2.57922
C         -4.80959        3.06408        2.18570
H         -4.01526        3.48256        1.55218
H         -4.35990        2.34719        2.89057
H         -5.25783        3.88474        2.76935
C         -5.30345        1.23563        0.50808
H         -6.26038        3.10870        0.58584
O         -4.32273        1.71739       -0.29677
O         -5.65953        0.09087        0.53339
C         -3.69142        0.80518       -1.20502
C         -4.07456        1.14627       -2.63517
H         -3.51492        0.50879       -3.33334
H         -3.83494        2.19573       -2.86479
H         -5.15088        0.98103       -2.78567
C         -2.18308        0.83519       -0.98484
H         -4.02139       -0.21569       -0.94703
O         -1.37108        0.79978       -1.87367
O         -1.86888        0.83951        0.32483
C         -0.50262        0.61907        0.66395
C         -0.24928        1.20397        2.04518
H         -0.46319        2.28175        2.03717
H          0.80061        1.04971        2.32858
H         -0.89391        0.72481        2.79801
C         -0.21193       -0.88117        0.58579
H          0.13762        1.10666       -0.09010
O         -0.99065       -1.72492        0.23265
O          1.05375       -1.14127        0.96218
H          1.18247       -2.10377        0.89812
