14
TARTRATE-2.gamout
O         -1.86519        1.26162        1.82051
O          1.10617       -0.57201        0.85523
O         -4.00358       -2.04243       -0.81565
O          4.11522        1.25662       -1.62991
O         -4.14546       -0.22296        0.62723
O          4.85158        0.00902       -1.10002
C         -1.00919        0.22342        1.55865
C          0.20142        0.43266        1.02203
C         -4.06879       -1.13444       -0.09659
C          3.65423        0.40417       -0.74427
H         -1.30590       -0.79032        1.86144
H          0.49343        1.44959        0.73022
H         -2.76402        0.97109        1.61228
H          1.89513       -0.22672        0.40942
