33
TENOXICAM.gamout
S         -4.84573        1.83495        0.49648
S         -5.19941       -2.35530        1.10478
O         -5.79139        2.60380       -0.31215
O         -4.42962        2.31132        1.81072
O         -2.18307       -1.58194        1.05379
O         -0.78805        2.09558       -0.31846
N         -3.47471        1.50014       -0.45243
N         -0.18069       -0.08323        0.00123
N          1.81098       -1.18713        0.16784
C         -5.41070        0.17077        0.65798
C         -2.55745        0.55105        0.02429
C         -4.44695       -0.81073        0.79469
C         -3.03208       -0.59563        0.62889
C         -6.74678       -0.29696        0.78710
C         -3.27511        2.27641       -1.68070
C         -1.09721        0.93137       -0.11646
C         -6.78104       -1.64095        1.05927
C          1.21876       -0.00280       -0.03083
C          1.94252        1.18567       -0.24545
C          3.33292        1.10339       -0.24584
C          3.14174       -1.24378        0.15824
C          3.95779       -0.12959       -0.04720
H         -7.62478        0.34004        0.68944
H         -2.85697        1.62324       -2.45969
H         -4.26086        2.63029       -2.00622
H         -2.60826        3.13261       -1.51510
H         -7.65796       -2.26825        1.21903
H         -0.51541       -1.01591        0.23110
H         -2.48124       -1.95266        1.89814
H          1.41429        2.12331       -0.39019
H          3.92759        2.00805       -0.39970
H          3.58621       -2.23480        0.30612
H          5.04443       -0.22693       -0.03673
