9
TETRAETHYLAMMONIUM+1.gamout
N          1.62990       -1.62990        0.00000
C          0.00000       -3.25970        0.00000
C          3.25970       -3.25970        0.00000
C          1.28430       -2.91420        0.00000
C          0.34550       -1.28430        0.00000
C          0.00000        0.00000        0.00000
C          2.91420       -1.97540        0.00000
C          1.97540       -0.34550        0.00000
C          3.25970        0.00000        0.00000
